-------------------------------------------------------
          Amber 22 SANDER                              2022
          -------------------------------------------------------

  [-O]verwriting output

File Assignments:

 Here is the input file:

This mdin file has been created by the biobb_amber module from the BioBB library
Type of mdin: free
&cntrl
  imin = 0 ! BioBB simulation_type nvt|npt|free|heat
  cut = 10.0 ! BioBB simulation_type nvt|npt|free|heat
  ntr = 0 ! BioBB simulation_type nvt|npt|free|heat
  ntc = 2 ! BioBB simulation_type nvt|npt|free|heat
  ntf = 2 ! BioBB simulation_type nvt|npt|free|heat
  ntt = 3 ! BioBB simulation_type nvt|npt|free|heat
  ig = -1 ! BioBB simulation_type nvt|npt|free|heat
  ioutfm = 1 ! BioBB simulation_type nvt|npt|free|heat
  iwrap = 1 ! BioBB simulation_type nvt|npt|free|heat
  nstlim = 250000 ! BioBB property
  dt = 0.002 ! BioBB simulation_type nvt|npt|free|heat
  ntwx = 500 ! BioBB property
&end

--------------------------------------------------------------------------------
   1.  RESOURCE   USE:
--------------------------------------------------------------------------------

 getting box info from netcdf restart file
 NATOM  =   25456 NTYPES =      17 NBONH =   24095 MBONA  =    1334
 NTHETH =    3008 MTHETA =    1794 NPHIH =    6105 MPHIA  =    5593
 NHPARM =       0 NPARM  =       0 NNB   =   44912 NRES   =    7799
 NBONA  =    1334 NTHETA =    1794 NPHIA =    5593 NUMBND =      78
 NUMANG =     170 NPTRA  =     193 NATYP =      46 NPHB   =       0
 IFBOX  =       2 NMXRS  =      24 IFCAP =       0 NEXTRA =       0
 NCOPY  =       0

     BOX TYPE: TRUNCATED OCTAHEDRON
Note: ig = -1. Setting random seed to   534281 based on wallclock time in microseconds.

--------------------------------------------------------------------------------
   2.  CONTROL  DATA  FOR  THE  RUN
--------------------------------------------------------------------------------

default_name

General flags:
     imin    =       0, nmropt  =       0

Nature and format of input:
     ntx     =       1, irest   =       0, ntrx    =       1

Nature and format of output:
     ntxo    =       2, ntpr    =      50, ntrx    =       1, ntwr    =  250000
     iwrap   =       1, ntwx    =     500, ntwv    =       0, ntwe    =       0
     ioutfm  =       1, ntwprt  =       0, idecomp =       0, rbornstat=      0

Potential function:
     ntf     =       2, ntb     =       1, igb     =       0, nsnb    =      25
     ipol    =       0, gbsa    =       0, iesp    =       0
     dielc   =   1.00000, cut     =  10.00000, intdiel =   1.00000

Frozen or restrained atoms:
     ibelly  =       0, ntr     =       0

Molecular dynamics:
     nstlim  =    250000, nscm    =      1000, nrespa  =         1
     t       =   0.00000, dt      =   0.00200, vlimit  =  20.00000

Langevin dynamics temperature regulation:
     ig      =  534281
     temp0   = 300.00000, tempi   =   0.00000, gamma_ln=   0.00000

SHAKE:
     ntc     =       2, jfastw  =       0
     tol     =   0.00001

Ewald parameters:
     verbose =       0, ew_type =       0, nbflag  =       1, use_pme =       1
     vdwmeth =       1, eedmeth =       1, netfrc  =       1
     Box X =   69.028   Box Y =   69.028   Box Z =   69.028
     Alpha =  109.471   Beta  =  109.471   Gamma =  109.471
     NFFT1 =   72       NFFT2 =   72       NFFT3 =   72
     Cutoff=   10.000   Tol   =0.100E-04
     Ewald Coefficient =  0.27511
     Interpolation order =    4

--------------------------------------------------------------------------------
   3.  ATOMIC COORDINATES AND VELOCITIES
--------------------------------------------------------------------------------

default_name
 begin time read from input coords =   110.000 ps

 Number of triangulated 3-point waters found:     7588

     Sum of charges from parm topology file =  -0.00100006
     Forcing neutrality...

--------------------------------------------------------------------------------
   4.  RESULTS
 NSTEP =        0   TIME(PS) =       0.000  TEMP(K) =     0.00  PRESS =     0.0
 Etot   =    -82774.2001  EKtot   =         0.0000  EPtot      =    -82774.2001
 BOND   =       532.6355  ANGLE   =      1207.7083  DIHED      =      2068.7694
 1-4 NB =       606.6725  1-4 EEL =      5358.7315  VDWAALS    =      9644.6593
 EELEC  =   -102193.3766  EHBOND  =         0.0000  RESTRAINT  =         0.0000
 Ewald error estimate:   0.3785E-04
 ------------------------------------------------------------------------------

      A V E R A G E S   O V E R  250000 S T E P S

 NSTEP =   250000   TIME(PS) =     500.000  TEMP(K) =   203.36  PRESS =     0.0
 Etot   =    -82861.0636  EKtot   =     10561.8035  EPtot      =    -93422.8671
 BOND   =       365.2616  ANGLE   =       928.4533  DIHED      =      1996.4358
 1-4 NB =       584.6315  1-4 EEL =      5362.9708  VDWAALS    =     12833.7713
 EELEC  =   -115494.3914  EHBOND  =         0.0000  RESTRAINT  =         0.0000
 Ewald error estimate:   0.6331E-04
 ------------------------------------------------------------------------------

      R M S  F L U C T U A T I O N S

 NSTEP =   250000   TIME(PS) =     500.000  TEMP(K) =     2.18  PRESS =     0.0
 Etot   =         3.5918  EKtot   =       113.3075  EPtot      =       113.5958
 BOND   =        15.7974  ANGLE   =        26.1279  DIHED      =        11.6015
 1-4 NB =         8.2902  1-4 EEL =        23.3150  VDWAALS    =       158.9307
 EELEC  =       268.9094  EHBOND  =         0.0000  RESTRAINT  =         0.0000
 Ewald error estimate:   0.4764E-04
 ------------------------------------------------------------------------------
