-------------------------------------------------------
          Amber 22 SANDER                              2022
          -------------------------------------------------------

  [-O]verwriting output

File Assignments:

 Here is the input file:

This mdin file has been created by the biobb_amber module from the BioBB library
Type of mdin: npt
&cntrl
  imin = 0 ! BioBB simulation_type nvt|npt|free|heat
  cut = 10.0 ! BioBB simulation_type nvt|npt|free|heat
  ntr = 1 ! BioBB property
  ntc = 2 ! BioBB simulation_type nvt|npt|free|heat
  ntf = 2 ! BioBB simulation_type nvt|npt|free|heat
  ntt = 3 ! BioBB simulation_type nvt|npt|free|heat
  ig = -1 ! BioBB simulation_type nvt|npt|free|heat
  ioutfm = 1 ! BioBB simulation_type nvt|npt|free|heat
  iwrap = 1 ! BioBB simulation_type nvt|npt|free|heat
  nstlim = 25000 ! BioBB property
  dt = 0.002 ! BioBB simulation_type nvt|npt|free|heat
  irest = 1 ! BioBB simulation_type npt
  gamma_ln = 5.0 ! BioBB simulation_type npt
  pres0 = 1.0 ! BioBB simulation_type npt
  ntp = 1 ! BioBB simulation_type npt
  taup = 2.0 ! BioBB simulation_type npt
  ntx = 5 ! BioBB simulation_type npt
  ntwx = 100 ! BioBB property
  restraintmask = "!:WAT,Cl-,Na+ & !@H=" ! BioBB property
  restraint_wt = 2.5 ! BioBB property
&end

--------------------------------------------------------------------------------
   1.  RESOURCE   USE:
--------------------------------------------------------------------------------

 getting box info from netcdf restart file
 NATOM  =   18019 NTYPES =      17 NBONH =   16982 MBONA  =    1021
 NTHETH =    2158 MTHETA =    1381 NPHIH =    4520 MPHIA  =    4284
 NHPARM =       0 NPARM  =       0 NNB   =   32093 NRES   =    5506
 NBONA  =    1021 NTHETA =    1381 NPHIA =    4284 NUMBND =      65
 NUMANG =     150 NPTRA  =     186 NATYP =      35 NPHB   =       0
 IFBOX  =       2 NMXRS  =      24 IFCAP =       0 NEXTRA =       0
 NCOPY  =       0

     BOX TYPE: TRUNCATED OCTAHEDRON
Note: ig = -1. Setting random seed to   500784 based on wallclock time in microseconds.

--------------------------------------------------------------------------------
   2.  CONTROL  DATA  FOR  THE  RUN
--------------------------------------------------------------------------------

default_name

General flags:
     imin    =       0, nmropt  =       0

Nature and format of input:
     ntx     =       5, irest   =       1, ntrx    =       1

Nature and format of output:
     ntxo    =       2, ntpr    =      50, ntrx    =       1, ntwr    =   25000
     iwrap   =       1, ntwx    =     100, ntwv    =       0, ntwe    =       0
     ioutfm  =       1, ntwprt  =       0, idecomp =       0, rbornstat=      0

Potential function:
     ntf     =       2, ntb     =       2, igb     =       0, nsnb    =      25
     ipol    =       0, gbsa    =       0, iesp    =       0
     dielc   =   1.00000, cut     =  10.00000, intdiel =   1.00000

Frozen or restrained atoms:
     ibelly  =       0, ntr     =       1
     restraint_wt =   2.50000

Molecular dynamics:
     nstlim  =     25000, nscm    =         0, nrespa  =         1
     t       =   0.00000, dt      =   0.00200, vlimit  =  20.00000

Langevin dynamics temperature regulation:
     ig      =  500784
     temp0   = 300.00000, tempi   =   0.00000, gamma_ln=   5.00000

Pressure regulation:
     ntp     =       1
     pres0   =   1.00000, comp    =  44.60000, taup    =   2.00000

SHAKE:
     ntc     =       2, jfastw  =       0
     tol     =   0.00001

Ewald parameters:
     verbose =       0, ew_type =       0, nbflag  =       1, use_pme =       1
     vdwmeth =       1, eedmeth =       1, netfrc  =       1
     Box X =   64.804   Box Y =   64.804   Box Z =   64.804
     Alpha =  109.471   Beta  =  109.471   Gamma =  109.471
     NFFT1 =   64       NFFT2 =   64       NFFT3 =   64
     Cutoff=   10.000   Tol   =0.100E-04
     Ewald Coefficient =  0.27511
     Interpolation order =    4

    LOADING THE CONSTRAINED ATOMS AS GROUPS

   5.  REFERENCE ATOM COORDINATES

  defa
     Mask !:WAT,Cl-,Na+ & !@H=; matches  1001 atoms

--------------------------------------------------------------------------------
   3.  ATOMIC COORDINATES AND VELOCITIES
--------------------------------------------------------------------------------

default_name
 begin time read from input coords =    60.000 ps

 Number of triangulated 3-point waters found:     5341

     Sum of charges from parm topology file =  -0.00000006
     Forcing neutrality...

--------------------------------------------------------------------------------
   4.  RESULTS
 NSTEP =       50   TIME(PS) =      60.100  TEMP(K) =   298.40  PRESS = -1265.6
 Etot   =    -46197.3129  EKtot   =     10992.1587  EPtot      =    -57189.4716
 BOND   =       360.0410  ANGLE   =       907.4633  DIHED      =      1616.0545
 1-4 NB =       463.4050  1-4 EEL =      3925.0326  VDWAALS    =      6135.6633
 EELEC  =    -70736.1294  EHBOND  =         0.0000  RESTRAINT  =       138.9982
 EAMBER (non-restraint)  =    -57328.4697
 EKCMT  =      4865.6449  VIRIAL  =     10576.7919  VOLUME     =    209008.1443
                                                    Density    =         0.8870
 Ewald error estimate:   0.1364E-03
 ------------------------------------------------------------------------------

      A V E R A G E S   O V E R   25000 S T E P S

 NSTEP =    25000   TIME(PS) =     110.000  TEMP(K) =   299.79  PRESS =  -136.9
 Etot   =    -47397.8917  EKtot   =     11043.7068  EPtot      =    -58441.5985
 BOND   =       385.5308  ANGLE   =       938.1526  DIHED      =      1622.0853
 1-4 NB =       458.2186  1-4 EEL =      3891.7075  VDWAALS    =      6526.7472
 EELEC  =    -72418.8422  EHBOND  =         0.0000  RESTRAINT  =       154.8017
 EAMBER (non-restraint)  =    -58596.4002
 EKCMT  =      4818.3907  VIRIAL  =      5392.5789  VOLUME     =    184787.7330
                                                    Density    =         1.0045
 Ewald error estimate:   0.7835E-04
 ------------------------------------------------------------------------------

      R M S  F L U C T U A T I O N S

 NSTEP =    25000   TIME(PS) =     110.000  TEMP(K) =     2.20  PRESS =   261.8
 Etot   =       341.0805  EKtot   =        80.9976  EPtot      =       327.4019
 BOND   =        16.5126  ANGLE   =        23.0055  DIHED      =        12.5821
 1-4 NB =         8.4068  1-4 EEL =        23.9387  VDWAALS    =       118.2881
 EELEC  =       395.2403  EHBOND  =         0.0000  RESTRAINT  =         8.8427
 EAMBER (non-restraint)  =       318.5592
 EKCMT  =        53.1545  VIRIAL  =      1104.6424  VOLUME     =      6707.8096
                                                    Density    =         0.0345
 Ewald error estimate:   0.5817E-04
 ------------------------------------------------------------------------------
