-------------------------------------------------------
          Amber 22 SANDER                              2022
          -------------------------------------------------------

  [-O]verwriting output

File Assignments:

 Here is the input file:

This mdin file has been created by the biobb_amber module from the BioBB library
Type of mdin: npt
&cntrl
  imin = 0 ! BioBB simulation_type nvt|npt|free|heat
  cut = 10.0 ! BioBB simulation_type nvt|npt|free|heat
  ntr = 1 ! BioBB property
  ntc = 2 ! BioBB simulation_type nvt|npt|free|heat
  ntf = 2 ! BioBB simulation_type nvt|npt|free|heat
  ntt = 3 ! BioBB simulation_type nvt|npt|free|heat
  ig = -1 ! BioBB simulation_type nvt|npt|free|heat
  ioutfm = 1 ! BioBB simulation_type nvt|npt|free|heat
  iwrap = 1 ! BioBB simulation_type nvt|npt|free|heat
  nstlim = 25000 ! BioBB property
  dt = 0.002 ! BioBB simulation_type nvt|npt|free|heat
  irest = 1 ! BioBB simulation_type npt
  gamma_ln = 5.0 ! BioBB simulation_type npt
  pres0 = 1.0 ! BioBB simulation_type npt
  ntp = 1 ! BioBB simulation_type npt
  taup = 2.0 ! BioBB simulation_type npt
  ntx = 5 ! BioBB simulation_type npt
  ntwx = 100 ! BioBB property
  restraintmask = "!:WAT,Cl-,Na+ & !@H=" ! BioBB property
  restraint_wt = 2.5 ! BioBB property
&end

--------------------------------------------------------------------------------
   1.  RESOURCE   USE:
--------------------------------------------------------------------------------

 getting box info from netcdf restart file
 NATOM  =   25456 NTYPES =      17 NBONH =   24095 MBONA  =    1334
 NTHETH =    3008 MTHETA =    1794 NPHIH =    6105 MPHIA  =    5593
 NHPARM =       0 NPARM  =       0 NNB   =   44912 NRES   =    7799
 NBONA  =    1334 NTHETA =    1794 NPHIA =    5593 NUMBND =      78
 NUMANG =     170 NPTRA  =     193 NATYP =      46 NPHB   =       0
 IFBOX  =       2 NMXRS  =      24 IFCAP =       0 NEXTRA =       0
 NCOPY  =       0

     BOX TYPE: TRUNCATED OCTAHEDRON
Note: ig = -1. Setting random seed to   260364 based on wallclock time in microseconds.

--------------------------------------------------------------------------------
   2.  CONTROL  DATA  FOR  THE  RUN
--------------------------------------------------------------------------------

default_name

General flags:
     imin    =       0, nmropt  =       0

Nature and format of input:
     ntx     =       5, irest   =       1, ntrx    =       1

Nature and format of output:
     ntxo    =       2, ntpr    =      50, ntrx    =       1, ntwr    =   25000
     iwrap   =       1, ntwx    =     100, ntwv    =       0, ntwe    =       0
     ioutfm  =       1, ntwprt  =       0, idecomp =       0, rbornstat=      0

Potential function:
     ntf     =       2, ntb     =       2, igb     =       0, nsnb    =      25
     ipol    =       0, gbsa    =       0, iesp    =       0
     dielc   =   1.00000, cut     =  10.00000, intdiel =   1.00000

Frozen or restrained atoms:
     ibelly  =       0, ntr     =       1
     restraint_wt =   2.50000

Molecular dynamics:
     nstlim  =     25000, nscm    =         0, nrespa  =         1
     t       =   0.00000, dt      =   0.00200, vlimit  =  20.00000

Langevin dynamics temperature regulation:
     ig      =  260364
     temp0   = 300.00000, tempi   =   0.00000, gamma_ln=   5.00000

Pressure regulation:
     ntp     =       1
     pres0   =   1.00000, comp    =  44.60000, taup    =   2.00000

SHAKE:
     ntc     =       2, jfastw  =       0
     tol     =   0.00001

Ewald parameters:
     verbose =       0, ew_type =       0, nbflag  =       1, use_pme =       1
     vdwmeth =       1, eedmeth =       1, netfrc  =       1
     Box X =   72.313   Box Y =   72.313   Box Z =   72.313
     Alpha =  109.471   Beta  =  109.471   Gamma =  109.471
     NFFT1 =   72       NFFT2 =   72       NFFT3 =   72
     Cutoff=   10.000   Tol   =0.100E-04
     Ewald Coefficient =  0.27511
     Interpolation order =    4

    LOADING THE CONSTRAINED ATOMS AS GROUPS

   5.  REFERENCE ATOM COORDINATES

  defa
     Mask !:WAT,Cl-,Na+ & !@H=; matches  1315 atoms

--------------------------------------------------------------------------------
   3.  ATOMIC COORDINATES AND VELOCITIES
--------------------------------------------------------------------------------

default_name
 begin time read from input coords =    60.000 ps

 Number of triangulated 3-point waters found:     7588

     Sum of charges from parm topology file =  -0.00100006
     Forcing neutrality...

--------------------------------------------------------------------------------
   4.  RESULTS
 NSTEP =       50   TIME(PS) =      60.100  TEMP(K) =   297.70  PRESS =  -925.8
 Etot   =    -64867.2271  EKtot   =     15461.9832  EPtot      =    -80329.2103
 BOND   =       522.5605  ANGLE   =      1204.9462  DIHED      =      2074.2784
 1-4 NB =       608.5729  1-4 EEL =      5373.0578  VDWAALS    =      9079.1111
 EELEC  =    -99370.3103  EHBOND  =         0.0000  RESTRAINT  =       178.5730
 EAMBER (non-restraint)  =    -80507.7833
 EKCMT  =      6801.9895  VIRIAL  =     12608.0173  VOLUME     =    290452.3562
                                                    Density    =         0.8965
 Ewald error estimate:   0.9811E-05
 ------------------------------------------------------------------------------

      A V E R A G E S   O V E R   25000 S T E P S

 NSTEP =    25000   TIME(PS) =     110.000  TEMP(K) =   299.94  PRESS =  -124.1
 Etot   =    -66728.5245  EKtot   =     15578.2727  EPtot      =    -82306.7972
 BOND   =       496.1166  ANGLE   =      1254.9635  DIHED      =      2077.8202
 1-4 NB =       621.4895  1-4 EEL =      5379.5870  VDWAALS    =      9368.3544
 EELEC  =   -101699.4877  EHBOND  =         0.0000  RESTRAINT  =       194.3594
 EAMBER (non-restraint)  =    -82501.1566
 EKCMT  =      6840.6759  VIRIAL  =      7568.9955  VOLUME     =    257954.2080
                                                    Density    =         1.0104
 Ewald error estimate:   0.7054E-04
 ------------------------------------------------------------------------------

      R M S  F L U C T U A T I O N S

 NSTEP =    25000   TIME(PS) =     110.000  TEMP(K) =     1.88  PRESS =   265.6
 Etot   =       485.4862  EKtot   =        97.7463  EPtot      =       478.4800
 BOND   =        18.5768  ANGLE   =        26.3131  DIHED      =        13.7341
 1-4 NB =         9.8736  1-4 EEL =        26.4777  VDWAALS    =       152.8515
 EELEC  =       586.2159  EHBOND  =         0.0000  RESTRAINT  =         9.7882
 EAMBER (non-restraint)  =       468.6918
 EKCMT  =        66.5936  VIRIAL  =      1565.0947  VOLUME     =      8020.9256
                                                    Density    =         0.0295
 Ewald error estimate:   0.5286E-04
 ------------------------------------------------------------------------------
