-------------------------------------------------------
          Amber 22 SANDER                              2022
          -------------------------------------------------------

  [-O]verwriting output

File Assignments:

 Here is the input file:

This mdin file has been created by the biobb_amber module from the BioBB library
Type of mdin: heat
&cntrl
  imin = 0 ! BioBB simulation_type nvt|npt|free|heat
  cut = 10.0 ! BioBB simulation_type nvt|npt|free|heat
  ntr = 1 ! BioBB property
  ntc = 2 ! BioBB simulation_type nvt|npt|free|heat
  ntf = 2 ! BioBB simulation_type nvt|npt|free|heat
  ntt = 3 ! BioBB simulation_type nvt|npt|free|heat
  ig = -1 ! BioBB simulation_type nvt|npt|free|heat
  ioutfm = 1 ! BioBB simulation_type nvt|npt|free|heat
  iwrap = 1 ! BioBB simulation_type nvt|npt|free|heat
  nstlim = 5000 ! BioBB simulation_type nvt|npt|free|heat
  dt = 0.002 ! BioBB simulation_type nvt|npt|free|heat
  tempi = 0.0 ! BioBB simulation_type heat
  temp0 = 300.0 ! BioBB simulation_type heat
  irest = 0 ! BioBB simulation_type heat
  ntb = 1 ! BioBB simulation_type heat
  gamma_ln = 1.0 ! BioBB simulation_type heat
  maxcyc = 50000 ! BioBB property
  ntwx = 100 ! BioBB property
  restraintmask = "!:WAT,Cl-,Na+" ! BioBB property
  restraint_wt = 10.0 ! BioBB property
&end

--------------------------------------------------------------------------------
   1.  RESOURCE   USE:
--------------------------------------------------------------------------------

 getting box info from netcdf restart file
 NATOM  =   18019 NTYPES =      17 NBONH =   16982 MBONA  =    1021
 NTHETH =    2158 MTHETA =    1381 NPHIH =    4520 MPHIA  =    4284
 NHPARM =       0 NPARM  =       0 NNB   =   32093 NRES   =    5506
 NBONA  =    1021 NTHETA =    1381 NPHIA =    4284 NUMBND =      65
 NUMANG =     150 NPTRA  =     186 NATYP =      35 NPHB   =       0
 IFBOX  =       2 NMXRS  =      24 IFCAP =       0 NEXTRA =       0
 NCOPY  =       0

     BOX TYPE: TRUNCATED OCTAHEDRON
Note: ig = -1. Setting random seed to   386390 based on wallclock time in microseconds.

--------------------------------------------------------------------------------
   2.  CONTROL  DATA  FOR  THE  RUN
--------------------------------------------------------------------------------

default_name

General flags:
     imin    =       0, nmropt  =       0

Nature and format of input:
     ntx     =       1, irest   =       0, ntrx    =       1

Nature and format of output:
     ntxo    =       2, ntpr    =      50, ntrx    =       1, ntwr    =    5000
     iwrap   =       1, ntwx    =     100, ntwv    =       0, ntwe    =       0
     ioutfm  =       1, ntwprt  =       0, idecomp =       0, rbornstat=      0

Potential function:
     ntf     =       2, ntb     =       1, igb     =       0, nsnb    =      25
     ipol    =       0, gbsa    =       0, iesp    =       0
     dielc   =   1.00000, cut     =  10.00000, intdiel =   1.00000

Frozen or restrained atoms:
     ibelly  =       0, ntr     =       1
     restraint_wt =  10.00000

Molecular dynamics:
     nstlim  =      5000, nscm    =         0, nrespa  =         1
     t       =   0.00000, dt      =   0.00200, vlimit  =  20.00000

Langevin dynamics temperature regulation:
     ig      =  386390
     temp0   = 300.00000, tempi   =   0.00000, gamma_ln=   1.00000

SHAKE:
     ntc     =       2, jfastw  =       0
     tol     =   0.00001

Ewald parameters:
     verbose =       0, ew_type =       0, nbflag  =       1, use_pme =       1
     vdwmeth =       1, eedmeth =       1, netfrc  =       1
     Box X =   64.804   Box Y =   64.804   Box Z =   64.804
     Alpha =  109.471   Beta  =  109.471   Gamma =  109.471
     NFFT1 =   64       NFFT2 =   64       NFFT3 =   64
     Cutoff=   10.000   Tol   =0.100E-04
     Ewald Coefficient =  0.27511
     Interpolation order =    4

    LOADING THE CONSTRAINED ATOMS AS GROUPS

   5.  REFERENCE ATOM COORDINATES

  defa
     Mask !:WAT,Cl-,Na+; matches  1960 atoms

--------------------------------------------------------------------------------
   3.  ATOMIC COORDINATES AND VELOCITIES
--------------------------------------------------------------------------------

default_name
 begin time read from input coords =     0.000 ps

 Number of triangulated 3-point waters found:     5341

     Sum of charges from parm topology file =  -0.00000006
     Forcing neutrality...

--------------------------------------------------------------------------------
   4.  RESULTS
 NSTEP =        0   TIME(PS) =       0.000  TEMP(K) =     0.00  PRESS =     0.0
 Etot   =    -75876.0426  EKtot   =         0.0000  EPtot      =    -75876.0426
 BOND   =        63.8817  ANGLE   =       219.8545  DIHED      =      1466.1514
 1-4 NB =       441.6966  1-4 EEL =      3969.4280  VDWAALS    =     10295.2481
 EELEC  =    -92332.3029  EHBOND  =         0.0000  RESTRAINT  =         0.0000
 Ewald error estimate:   0.7733E-04
 ------------------------------------------------------------------------------

      A V E R A G E S   O V E R    5000 S T E P S

 NSTEP =     5000   TIME(PS) =      10.000  TEMP(K) =   270.88  PRESS =     0.0
 Etot   =    -48046.6740  EKtot   =      9978.3795  EPtot      =    -58025.0535
 BOND   =       334.2176  ANGLE   =       773.1085  DIHED      =      1584.4885
 1-4 NB =       463.8812  1-4 EEL =      3928.4527  VDWAALS    =      6575.3527
 EELEC  =    -72038.9159  EHBOND  =         0.0000  RESTRAINT  =       354.3612
 EAMBER (non-restraint)  =    -58379.4147
 Ewald error estimate:   0.6648E-04
 ------------------------------------------------------------------------------

      R M S  F L U C T U A T I O N S

 NSTEP =     5000   TIME(PS) =      10.000  TEMP(K) =    52.17  PRESS =     0.0
 Etot   =      4307.2905  EKtot   =      1921.9565  EPtot      =      2413.8533
 BOND   =        61.7201  ANGLE   =       122.9851  DIHED      =        28.6522
 1-4 NB =        10.5322  1-4 EEL =        19.7310  VDWAALS    =       766.0274
 EELEC  =      2900.1734  EHBOND  =         0.0000  RESTRAINT  =        64.3213
 EAMBER (non-restraint)  =      2349.5320
 Ewald error estimate:   0.5145E-04
 ------------------------------------------------------------------------------
