-------------------------------------------------------
          Amber 22 SANDER                              2022
          -------------------------------------------------------

  [-O]verwriting output

File Assignments:

 Here is the input file:

This mdin file has been created by the biobb_amber module from the BioBB library
Type of mdin: nvt
&cntrl
  imin = 0 ! BioBB simulation_type nvt|npt|free|heat
  cut = 10.0 ! BioBB simulation_type nvt|npt|free|heat
  ntr = 1 ! BioBB property
  ntc = 2 ! BioBB simulation_type nvt|npt|free|heat
  ntf = 2 ! BioBB simulation_type nvt|npt|free|heat
  ntt = 3 ! BioBB simulation_type nvt|npt|free|heat
  ig = -1 ! BioBB simulation_type nvt|npt|free|heat
  ioutfm = 1 ! BioBB simulation_type nvt|npt|free|heat
  iwrap = 1 ! BioBB simulation_type nvt|npt|free|heat
  nstlim = 25000 ! BioBB property
  dt = 0.002 ! BioBB simulation_type nvt|npt|free|heat
  irest = 1 ! BioBB simulation_type nvt
  gamma_ln = 5.0 ! BioBB simulation_type nvt
  ntb = 1 ! BioBB simulation_type nvt
  ntx = 5 ! BioBB simulation_type nvt
  ntwx = 100 ! BioBB property
  restraintmask = "!:WAT,Cl-,Na+ & !@H=" ! BioBB property
  restraint_wt = 5.0 ! BioBB property
&end

--------------------------------------------------------------------------------
   1.  RESOURCE   USE:
--------------------------------------------------------------------------------

 getting box info from netcdf restart file
 NATOM  =   18019 NTYPES =      17 NBONH =   16982 MBONA  =    1021
 NTHETH =    2158 MTHETA =    1381 NPHIH =    4520 MPHIA  =    4284
 NHPARM =       0 NPARM  =       0 NNB   =   32093 NRES   =    5506
 NBONA  =    1021 NTHETA =    1381 NPHIA =    4284 NUMBND =      65
 NUMANG =     150 NPTRA  =     186 NATYP =      35 NPHB   =       0
 IFBOX  =       2 NMXRS  =      24 IFCAP =       0 NEXTRA =       0
 NCOPY  =       0

     BOX TYPE: TRUNCATED OCTAHEDRON
Note: ig = -1. Setting random seed to   445371 based on wallclock time in microseconds.

--------------------------------------------------------------------------------
   2.  CONTROL  DATA  FOR  THE  RUN
--------------------------------------------------------------------------------

default_name

General flags:
     imin    =       0, nmropt  =       0

Nature and format of input:
     ntx     =       5, irest   =       1, ntrx    =       1

Nature and format of output:
     ntxo    =       2, ntpr    =      50, ntrx    =       1, ntwr    =   25000
     iwrap   =       1, ntwx    =     100, ntwv    =       0, ntwe    =       0
     ioutfm  =       1, ntwprt  =       0, idecomp =       0, rbornstat=      0

Potential function:
     ntf     =       2, ntb     =       1, igb     =       0, nsnb    =      25
     ipol    =       0, gbsa    =       0, iesp    =       0
     dielc   =   1.00000, cut     =  10.00000, intdiel =   1.00000

Frozen or restrained atoms:
     ibelly  =       0, ntr     =       1
     restraint_wt =   5.00000

Molecular dynamics:
     nstlim  =     25000, nscm    =         0, nrespa  =         1
     t       =   0.00000, dt      =   0.00200, vlimit  =  20.00000

Langevin dynamics temperature regulation:
     ig      =  445371
     temp0   = 300.00000, tempi   =   0.00000, gamma_ln=   5.00000

SHAKE:
     ntc     =       2, jfastw  =       0
     tol     =   0.00001

Ewald parameters:
     verbose =       0, ew_type =       0, nbflag  =       1, use_pme =       1
     vdwmeth =       1, eedmeth =       1, netfrc  =       1
     Box X =   64.804   Box Y =   64.804   Box Z =   64.804
     Alpha =  109.471   Beta  =  109.471   Gamma =  109.471
     NFFT1 =   64       NFFT2 =   64       NFFT3 =   64
     Cutoff=   10.000   Tol   =0.100E-04
     Ewald Coefficient =  0.27511
     Interpolation order =    4

    LOADING THE CONSTRAINED ATOMS AS GROUPS

   5.  REFERENCE ATOM COORDINATES

  defa
     Mask !:WAT,Cl-,Na+ & !@H=; matches  1001 atoms

--------------------------------------------------------------------------------
   3.  ATOMIC COORDINATES AND VELOCITIES
--------------------------------------------------------------------------------

default_name
 begin time read from input coords =    10.000 ps

 Number of triangulated 3-point waters found:     5341

     Sum of charges from parm topology file =  -0.00000006
     Forcing neutrality...

--------------------------------------------------------------------------------
   4.  RESULTS
 NSTEP =       50   TIME(PS) =      10.100  TEMP(K) =   299.15  PRESS =     0.0
 Etot   =    -45375.4686  EKtot   =     11020.1132  EPtot      =    -56395.5818
 BOND   =       360.5170  ANGLE   =       960.6331  DIHED      =      1603.9142
 1-4 NB =       462.2876  1-4 EEL =      3904.8709  VDWAALS    =      6042.2345
 EELEC  =    -69938.0274  EHBOND  =         0.0000  RESTRAINT  =       207.9884
 EAMBER (non-restraint)  =    -56603.5702
 Ewald error estimate:   0.7673E-04
 ------------------------------------------------------------------------------

      A V E R A G E S   O V E R   25000 S T E P S

 NSTEP =    25000   TIME(PS) =      60.000  TEMP(K) =   299.96  PRESS =     0.0
 Etot   =    -45665.3647  EKtot   =     11049.9546  EPtot      =    -56715.3192
 BOND   =       381.5236  ANGLE   =       928.3980  DIHED      =      1622.3736
 1-4 NB =       460.9927  1-4 EEL =      3896.2264  VDWAALS    =      6045.1986
 EELEC  =    -70254.3971  EHBOND  =         0.0000  RESTRAINT  =       204.3648
 EAMBER (non-restraint)  =    -56919.6841
 Ewald error estimate:   0.7495E-04
 ------------------------------------------------------------------------------

      R M S  F L U C T U A T I O N S

 NSTEP =    25000   TIME(PS) =      60.000  TEMP(K) =     2.24  PRESS =     0.0
 Etot   =       208.5160  EKtot   =        82.5124  EPtot      =       188.5534
 BOND   =        16.5669  ANGLE   =        23.2783  DIHED      =        12.0412
 1-4 NB =         8.2241  1-4 EEL =        22.6648  VDWAALS    =       120.2093
 EELEC  =       259.0560  EHBOND  =         0.0000  RESTRAINT  =        10.1228
 EAMBER (non-restraint)  =       178.4307
 Ewald error estimate:   0.5769E-04
 ------------------------------------------------------------------------------
