-------------------------------------------------------
          Amber 22 SANDER                              2022
          -------------------------------------------------------

  [-O]verwriting output

File Assignments:

 Here is the input file:

Mdin read from input file: /home/gbayarri/projects/BioBB/biobb_workflows/biobb_wf_amber_abc_setup/python/sandbox_336ee86e-2c79-4abb-bf29-9269914e0b4b/md.in
and modified by the biobb_amber module from the BioBB library
Production MD - NTP - Langevin thermostat - gamma 0.01 - Monte Carlo barostat - BOOST
 &cntrl
  imin=0
  irest=1
  tol=0.0000001
  nstlim = 25000 ! BioBB property
  ntx=5 !  Read coordinates and velocities from restart
  ntc=2 !  SHAKE, constrain lenghts of the bonds having H
  ntf=2 !  SHAKE, constrain lenghts of the bonds having H
  ntpr = 50 ! BioBB property
  ntwr=5000 !  save every 5000 frames - 20ps
  ntwx = 50 ! BioBB property
  dt=0.004 !  Time step using H-mass repartition
  ig=-1 !  seed for the pseudo-random number generator
  iwrap=1 !  Wrap coordinates
  ntb=2 !  Periodic boundaries
  ntt=3 !  Langevin dynamics
  gamma_ln=0.01 !  Langevin dynamics
  ntp=1 !  Pressure scaling with isotropic position
  barostat=2 !  Monte Carlo Barostat
  mcbarint=100 !  Number of steps
  pres0=1.0 !  Reference pressure in bars
  cut=8.0 !  Non-bonded cutoff, in Angstroms
  timlim=170000
  temp0=310
&end

--------------------------------------------------------------------------------
   1.  RESOURCE   USE:
--------------------------------------------------------------------------------

Warning: timlim has been retired.
  Check the Retired Namelist Variables Appendix in the manual.

 getting box info from netcdf restart file
 NATOM  =   35682 NTYPES =      19 NBONH =   26426 MBONA  =    9262
 NTHETH =     640 MTHETA =     836 NPHIH =    1274 MPHIA  =    1606
 NHPARM =       0 NPARM  =       0 NNB   =   65288 NRES   =    8794
 NBONA  =    9262 NTHETA =     836 NPHIA =    1606 NUMBND =      53
 NUMANG =     103 NPTRA  =      66 NATYP =      34 NPHB   =       0
 IFBOX  =       2 NMXRS  =      34 IFCAP =       0 NEXTRA =    8718
 NCOPY  =       0

     BOX TYPE: TRUNCATED OCTAHEDRON
Note: ig = -1. Setting random seed to   401778 based on wallclock time in microseconds.

--------------------------------------------------------------------------------
   2.  CONTROL  DATA  FOR  THE  RUN
--------------------------------------------------------------------------------

default_name

General flags:
     imin    =       0, nmropt  =       0

Nature and format of input:
     ntx     =       5, irest   =       1, ntrx    =       1

Nature and format of output:
     ntxo    =       2, ntpr    =      50, ntrx    =       1, ntwr    =    5000
     iwrap   =       1, ntwx    =      50, ntwv    =       0, ntwe    =       0
     ioutfm  =       1, ntwprt  =       0, idecomp =       0, rbornstat=      0

Potential function:
     ntf     =       2, ntb     =       2, igb     =       0, nsnb    =      25
     ipol    =       0, gbsa    =       0, iesp    =       0
     dielc   =   1.00000, cut     =   8.00000, intdiel =   1.00000

Frozen or restrained atoms:
     ibelly  =       0, ntr     =       0

Molecular dynamics:
     nstlim  =     25000, nscm    =      1000, nrespa  =         1
     t       =   0.00000, dt      =   0.00400, vlimit  =  20.00000

Langevin dynamics temperature regulation:
     ig      =  401778
     temp0   = 310.00000, tempi   =   0.00000, gamma_ln=   0.01000

Pressure regulation:
     ntp     =       1
     pres0   =   1.00000, comp    =  44.60000, taup    =   1.00000
     Monte-Carlo Barostat:
     mcbarint  =     100

SHAKE:
     ntc     =       2, jfastw  =       0
     tol     =   0.00000

Extra-points options:
     frameon =       1, chngmask=       1

Ewald parameters:
     verbose =       0, ew_type =       0, nbflag  =       1, use_pme =       1
     vdwmeth =       1, eedmeth =       1, netfrc  =       1
     Box X =   70.381   Box Y =   70.381   Box Z =   70.381
     Alpha =  109.471   Beta  =  109.471   Gamma =  109.471
     NFFT1 =   72       NFFT2 =   72       NFFT3 =   72
     Cutoff=    8.000   Tol   =0.100E-04
     Ewald Coefficient =  0.34864
     Interpolation order =    4

--------------------------------------------------------------------------------
   3.  ATOMIC COORDINATES AND VELOCITIES
--------------------------------------------------------------------------------

default_name
 begin time read from input coords =    60.000 ps

 Number of triangulated 3-point waters found:     8718

     Sum of charges from parm topology file =   0.00004798
     Forcing neutrality...

--------------------------------------------------------------------------------
   4.  RESULTS
 NSTEP =       50   TIME(PS) =      60.200  TEMP(K) =   307.12  PRESS =   -25.5
 Etot   =    -98495.8532  EKtot   =     16620.3959  EPtot      =   -115116.2491
 BOND   =       241.4363  ANGLE   =       456.7613  DIHED      =       583.6951
 1-4 NB =       204.7034  1-4 EEL =     -3179.7910  VDWAALS    =     14330.7136
 EELEC  =   -127753.7678  EHBOND  =         0.0000  RESTRAINT  =         0.0000
 EKCMT  =      8162.8703  VIRIAL  =      8310.6385  VOLUME     =    268380.6746
                                                    Density    =         1.0290
 Ewald error estimate:   0.2995E-03
 ------------------------------------------------------------------------------

      A V E R A G E S   O V E R   25000 S T E P S

 NSTEP =    25000   TIME(PS) =     160.000  TEMP(K) =   308.01  PRESS =    24.6
 Etot   =    -98056.3955  EKtot   =     16668.8596  EPtot      =   -114725.2551
 BOND   =       221.9207  ANGLE   =       435.2163  DIHED      =       590.2806
 1-4 NB =       204.1033  1-4 EEL =     -3170.7794  VDWAALS    =     14341.8992
 EELEC  =   -127347.8958  EHBOND  =         0.0000  RESTRAINT  =         0.0000
 EKCMT  =      8288.2147  VIRIAL  =      8145.3563  VOLUME     =    269956.1753
                                                    Density    =         1.0230
 Ewald error estimate:   0.1067E-03
 ------------------------------------------------------------------------------

      R M S  F L U C T U A T I O N S

 NSTEP =    25000   TIME(PS) =     160.000  TEMP(K) =     1.90  PRESS =   166.7
 Etot   =       206.8532  EKtot   =       102.6776  EPtot      =       169.2650
 BOND   =        13.3152  ANGLE   =        16.3071  DIHED      =        10.3127
 1-4 NB =         5.5548  1-4 EEL =        16.1749  VDWAALS    =       179.0696
 EELEC  =       286.1355  EHBOND  =         0.0000  RESTRAINT  =         0.0000
 EKCMT  =        73.7789  VIRIAL  =       974.1451  VOLUME     =       567.1723
                                                    Density    =         0.0022
 Ewald error estimate:   0.8053E-04
 ------------------------------------------------------------------------------
