-------------------------------------------------------
          Amber 22 SANDER                              2022
          -------------------------------------------------------

  [-O]verwriting output

File Assignments:

 Here is the input file:

Mdin read from input file: /home/gbayarri/projects/BioBB/biobb_workflows/biobb_wf_amber_abc_setup/python/sandbox_465ffac8-6a0a-4271-be89-e662cc0affc1/step10.in
and modified by the biobb_amber module from the BioBB library
MD: final.1.in
 &cntrl
  imin = 0
  nstlim = 10000 ! BioBB property
  dt = 0.002
  ntx = 5
  irest = 1
  ig = -1
  ntwx = 5000
  ntwv = -1
  ioutfm = 1
  ntxo = 2
  ntpr = 50 ! BioBB property
  ntwr = 50000
  iwrap = 0
  nscm = 1000
  ntc = 2
  ntf = 2
  ntb = 2
  cut = 9.0
  ntt = 3
  gamma_ln = 5
  temp0 = 310
  tempi = 310
  ntp = 1
  barostat = 2
  pres0 = 1.0
  ntr = 0
 &end

--------------------------------------------------------------------------------
   1.  RESOURCE   USE:
--------------------------------------------------------------------------------

 getting box info from netcdf restart file
 NATOM  =   35682 NTYPES =      19 NBONH =   26426 MBONA  =    9262
 NTHETH =     640 MTHETA =     836 NPHIH =    1274 MPHIA  =    1606
 NHPARM =       0 NPARM  =       0 NNB   =   65288 NRES   =    8794
 NBONA  =    9262 NTHETA =     836 NPHIA =    1606 NUMBND =      53
 NUMANG =     103 NPTRA  =      66 NATYP =      34 NPHB   =       0
 IFBOX  =       2 NMXRS  =      34 IFCAP =       0 NEXTRA =    8718
 NCOPY  =       0

     BOX TYPE: TRUNCATED OCTAHEDRON
Note: ig = -1. Setting random seed to   597727 based on wallclock time in microseconds.

--------------------------------------------------------------------------------
   2.  CONTROL  DATA  FOR  THE  RUN
--------------------------------------------------------------------------------

default_name

General flags:
     imin    =       0, nmropt  =       0

Nature and format of input:
     ntx     =       5, irest   =       1, ntrx    =       1

Nature and format of output:
     ntxo    =       2, ntpr    =      50, ntrx    =       1, ntwr    =   50000
     iwrap   =       0, ntwx    =    5000, ntwv    =      -1, ntwe    =       0
     ioutfm  =       1, ntwprt  =       0, idecomp =       0, rbornstat=      0

Potential function:
     ntf     =       2, ntb     =       2, igb     =       0, nsnb    =      25
     ipol    =       0, gbsa    =       0, iesp    =       0
     dielc   =   1.00000, cut     =   9.00000, intdiel =   1.00000

Frozen or restrained atoms:
     ibelly  =       0, ntr     =       0

Molecular dynamics:
     nstlim  =     10000, nscm    =      1000, nrespa  =         1
     t       =   0.00000, dt      =   0.00200, vlimit  =  20.00000

Langevin dynamics temperature regulation:
     ig      =  597727
     temp0   = 310.00000, tempi   = 310.00000, gamma_ln=   5.00000

Pressure regulation:
     ntp     =       1
     pres0   =   1.00000, comp    =  44.60000, taup    =   1.00000
     Monte-Carlo Barostat:
     mcbarint  =     100

SHAKE:
     ntc     =       2, jfastw  =       0
     tol     =   0.00001

Extra-points options:
     frameon =       1, chngmask=       1

Ewald parameters:
     verbose =       0, ew_type =       0, nbflag  =       1, use_pme =       1
     vdwmeth =       1, eedmeth =       1, netfrc  =       1
     Box X =   70.478   Box Y =   70.478   Box Z =   70.478
     Alpha =  109.471   Beta  =  109.471   Gamma =  109.471
     NFFT1 =   72       NFFT2 =   72       NFFT3 =   72
     Cutoff=    9.000   Tol   =0.100E-04
     Ewald Coefficient =  0.30768
     Interpolation order =    4

--------------------------------------------------------------------------------
   3.  ATOMIC COORDINATES AND VELOCITIES
--------------------------------------------------------------------------------

default_name
 begin time read from input coords =    40.000 ps

 Number of triangulated 3-point waters found:     8718

     Sum of charges from parm topology file =   0.00004798
     Forcing neutrality...

--------------------------------------------------------------------------------
   4.  RESULTS
 NSTEP =       50   TIME(PS) =      40.100  TEMP(K) =   310.59  PRESS =    55.0
 Etot   =    -98729.8811  EKtot   =     16808.3856  EPtot      =   -115538.2667
 BOND   =       206.3688  ANGLE   =       424.8275  DIHED      =       601.2015
 1-4 NB =       198.7171  1-4 EEL =     -3197.7511  VDWAALS    =     14661.2082
 EELEC  =   -128432.8388  EHBOND  =         0.0000  RESTRAINT  =         0.0000
 EKCMT  =      8180.7107  VIRIAL  =      7860.7870  VOLUME     =    269485.9549
                                                    Density    =         1.0248
 Ewald error estimate:   0.1333E-03
 ------------------------------------------------------------------------------

      A V E R A G E S   O V E R   10000 S T E P S

 NSTEP =    10000   TIME(PS) =      60.000  TEMP(K) =   310.11  PRESS =    38.8
 Etot   =    -98814.3451  EKtot   =     16782.3048  EPtot      =   -115596.6499
 BOND   =       207.5938  ANGLE   =       426.2136  DIHED      =       582.8839
 1-4 NB =       201.8384  1-4 EEL =     -3169.6657  VDWAALS    =     14693.3499
 EELEC  =   -128538.8638  EHBOND  =         0.0000  RESTRAINT  =         0.0000
 EKCMT  =      8140.2065  VIRIAL  =      7915.2215  VOLUME     =    269278.3457
                                                    Density    =         1.0256
 Ewald error estimate:   0.1209E-03
 ------------------------------------------------------------------------------

      R M S  F L U C T U A T I O N S

 NSTEP =    10000   TIME(PS) =      60.000  TEMP(K) =     1.89  PRESS =   160.4
 Etot   =       204.7098  EKtot   =       102.1706  EPtot      =       166.8409
 BOND   =        12.2756  ANGLE   =        15.5275  DIHED      =         9.6007
 1-4 NB =         5.4442  1-4 EEL =        15.8857  VDWAALS    =       168.1583
 EELEC  =       274.4627  EHBOND  =         0.0000  RESTRAINT  =         0.0000
 EKCMT  =        70.5777  VIRIAL  =       924.2154  VOLUME     =       493.2728
                                                    Density    =         0.0019
 Ewald error estimate:   0.9210E-04
 ------------------------------------------------------------------------------
