-------------------------------------------------------
          Amber 22 SANDER                              2022
          -------------------------------------------------------

  [-O]verwriting output

File Assignments:

 Here is the input file:

This mdin file has been created by the biobb_amber module from the BioBB library
Type of mdin: heat
&cntrl
  imin = 0 ! BioBB simulation_type nvt|npt|free|heat
  cut = 10.0 ! BioBB simulation_type nvt|npt|free|heat
  ntr = 1 ! BioBB property
  ntc = 2 ! BioBB simulation_type nvt|npt|free|heat
  ntf = 2 ! BioBB simulation_type nvt|npt|free|heat
  ntt = 3 ! BioBB simulation_type nvt|npt|free|heat
  ig = -1 ! BioBB simulation_type nvt|npt|free|heat
  ioutfm = 1 ! BioBB simulation_type nvt|npt|free|heat
  iwrap = 1 ! BioBB simulation_type nvt|npt|free|heat
  nstlim = 5000 ! BioBB simulation_type nvt|npt|free|heat
  dt = 0.002 ! BioBB simulation_type nvt|npt|free|heat
  tempi = 0.0 ! BioBB simulation_type heat
  temp0 = 300.0 ! BioBB simulation_type heat
  irest = 0 ! BioBB simulation_type heat
  ntb = 1 ! BioBB simulation_type heat
  gamma_ln = 1.0 ! BioBB simulation_type heat
  maxcyc = 50000 ! BioBB property
  ntwx = 100 ! BioBB property
  restraintmask = "!:WAT,Cl-,Na+" ! BioBB property
  restraint_wt = 10.0 ! BioBB property
&end

--------------------------------------------------------------------------------
   1.  RESOURCE   USE:
--------------------------------------------------------------------------------

 getting box info from netcdf restart file
 NATOM  =   25456 NTYPES =      17 NBONH =   24095 MBONA  =    1334
 NTHETH =    3008 MTHETA =    1794 NPHIH =    6105 MPHIA  =    5593
 NHPARM =       0 NPARM  =       0 NNB   =   44912 NRES   =    7799
 NBONA  =    1334 NTHETA =    1794 NPHIA =    5593 NUMBND =      78
 NUMANG =     170 NPTRA  =     193 NATYP =      46 NPHB   =       0
 IFBOX  =       2 NMXRS  =      24 IFCAP =       0 NEXTRA =       0
 NCOPY  =       0

     BOX TYPE: TRUNCATED OCTAHEDRON
Note: ig = -1. Setting random seed to   169402 based on wallclock time in microseconds.

--------------------------------------------------------------------------------
   2.  CONTROL  DATA  FOR  THE  RUN
--------------------------------------------------------------------------------

default_name

General flags:
     imin    =       0, nmropt  =       0

Nature and format of input:
     ntx     =       1, irest   =       0, ntrx    =       1

Nature and format of output:
     ntxo    =       2, ntpr    =      50, ntrx    =       1, ntwr    =    5000
     iwrap   =       1, ntwx    =     100, ntwv    =       0, ntwe    =       0
     ioutfm  =       1, ntwprt  =       0, idecomp =       0, rbornstat=      0

Potential function:
     ntf     =       2, ntb     =       1, igb     =       0, nsnb    =      25
     ipol    =       0, gbsa    =       0, iesp    =       0
     dielc   =   1.00000, cut     =  10.00000, intdiel =   1.00000

Frozen or restrained atoms:
     ibelly  =       0, ntr     =       1
     restraint_wt =  10.00000

Molecular dynamics:
     nstlim  =      5000, nscm    =         0, nrespa  =         1
     t       =   0.00000, dt      =   0.00200, vlimit  =  20.00000

Langevin dynamics temperature regulation:
     ig      =  169402
     temp0   = 300.00000, tempi   =   0.00000, gamma_ln=   1.00000

SHAKE:
     ntc     =       2, jfastw  =       0
     tol     =   0.00001

Ewald parameters:
     verbose =       0, ew_type =       0, nbflag  =       1, use_pme =       1
     vdwmeth =       1, eedmeth =       1, netfrc  =       1
     Box X =   72.313   Box Y =   72.313   Box Z =   72.313
     Alpha =  109.471   Beta  =  109.471   Gamma =  109.471
     NFFT1 =   72       NFFT2 =   72       NFFT3 =   72
     Cutoff=   10.000   Tol   =0.100E-04
     Ewald Coefficient =  0.27511
     Interpolation order =    4

    LOADING THE CONSTRAINED ATOMS AS GROUPS

   5.  REFERENCE ATOM COORDINATES

  defa
     Mask !:WAT,Cl-,Na+; matches  2646 atoms

--------------------------------------------------------------------------------
   3.  ATOMIC COORDINATES AND VELOCITIES
--------------------------------------------------------------------------------

default_name
 begin time read from input coords =     0.000 ps

 Number of triangulated 3-point waters found:     7588

     Sum of charges from parm topology file =  -0.00100006
     Forcing neutrality...

--------------------------------------------------------------------------------
   4.  RESULTS
 NSTEP =        0   TIME(PS) =       0.000  TEMP(K) =     0.00  PRESS =     0.0
 Etot   =   -107279.5080  EKtot   =         0.0000  EPtot      =   -107279.5080
 BOND   =        69.9443  ANGLE   =       249.8810  DIHED      =      1859.1171
 1-4 NB =       606.0923  1-4 EEL =      5501.2010  VDWAALS    =     14449.2951
 EELEC  =   -130015.0389  EHBOND  =         0.0000  RESTRAINT  =         0.0000
 Ewald error estimate:   0.8909E-04
 ------------------------------------------------------------------------------

      A V E R A G E S   O V E R    5000 S T E P S

 NSTEP =     5000   TIME(PS) =      10.000  TEMP(K) =   271.20  PRESS =     0.0
 Etot   =    -67831.1755  EKtot   =     14085.7192  EPtot      =    -81916.8947
 BOND   =       429.5120  ANGLE   =      1033.7647  DIHED      =      2009.5511
 1-4 NB =       632.2352  1-4 EEL =      5440.0511  VDWAALS    =      9459.0580
 EELEC  =   -101387.1445  EHBOND  =         0.0000  RESTRAINT  =       466.0778
 EAMBER (non-restraint)  =    -82382.9725
 Ewald error estimate:   0.6470E-04
 ------------------------------------------------------------------------------

      R M S  F L U C T U A T I O N S

 NSTEP =     5000   TIME(PS) =      10.000  TEMP(K) =    52.42  PRESS =     0.0
 Etot   =      6084.5747  EKtot   =      2722.6954  EPtot      =      3400.6014
 BOND   =        80.8688  ANGLE   =       172.6991  DIHED      =        34.8673
 1-4 NB =        13.7939  1-4 EEL =        20.9238  VDWAALS    =      1076.4460
 EELEC  =      4087.8037  EHBOND  =         0.0000  RESTRAINT  =        89.1340
 EAMBER (non-restraint)  =      3311.4674
 Ewald error estimate:   0.4880E-04
 ------------------------------------------------------------------------------
