-------------------------------------------------------
          Amber 22 SANDER                              2022
          -------------------------------------------------------

  [-O]verwriting output

File Assignments:

 Here is the input file:

Mdin read from input file: /home/gbayarri/projects/BioBB/biobb_workflows/biobb_wf_amber_abc_setup/python/sandbox_12fa2dd7-69da-417c-b088-538ed33b6b85/step2.in
and modified by the biobb_amber module from the BioBB library
MD: step2.in
 &cntrl
  imin = 0
  nstlim = 15000 ! BioBB property
  dt = 0.001
  ntx = 1
  irest = 0
  ig = -1
  ntwx = 500
  ntwv = -1
  ioutfm = 1
  ntxo = 2
  ntpr = 50
  ntwr = 500
  iwrap = 0
  nscm = 0
  ntc = 2
  ntf = 2
  ntb = 1
  cut = 8.0
  ntt = 3
  gamma_ln = 5
  temp0 = 310
  tempi = 310
  ntr = 1
  restraintmask = ":DA,DC,DG,DT,D=3,D=5&!@H=" ! BioBB property
  restraint_wt = 5.0
 &end

--------------------------------------------------------------------------------
   1.  RESOURCE   USE:
--------------------------------------------------------------------------------

 getting box info from netcdf restart file
 NATOM  =   35682 NTYPES =      19 NBONH =   26426 MBONA  =    9262
 NTHETH =     640 MTHETA =     836 NPHIH =    1274 MPHIA  =    1606
 NHPARM =       0 NPARM  =       0 NNB   =   65288 NRES   =    8794
 NBONA  =    9262 NTHETA =     836 NPHIA =    1606 NUMBND =      53
 NUMANG =     103 NPTRA  =      66 NATYP =      34 NPHB   =       0
 IFBOX  =       2 NMXRS  =      34 IFCAP =       0 NEXTRA =    8718
 NCOPY  =       0

     BOX TYPE: TRUNCATED OCTAHEDRON
Note: ig = -1. Setting random seed to   667385 based on wallclock time in microseconds.

--------------------------------------------------------------------------------
   2.  CONTROL  DATA  FOR  THE  RUN
--------------------------------------------------------------------------------

default_name

General flags:
     imin    =       0, nmropt  =       0

Nature and format of input:
     ntx     =       1, irest   =       0, ntrx    =       1

Nature and format of output:
     ntxo    =       2, ntpr    =      50, ntrx    =       1, ntwr    =     500
     iwrap   =       0, ntwx    =     500, ntwv    =      -1, ntwe    =       0
     ioutfm  =       1, ntwprt  =       0, idecomp =       0, rbornstat=      0

Potential function:
     ntf     =       2, ntb     =       1, igb     =       0, nsnb    =      25
     ipol    =       0, gbsa    =       0, iesp    =       0
     dielc   =   1.00000, cut     =   8.00000, intdiel =   1.00000

Frozen or restrained atoms:
     ibelly  =       0, ntr     =       1
     restraint_wt =   5.00000

Molecular dynamics:
     nstlim  =     15000, nscm    =         0, nrespa  =         1
     t       =   0.00000, dt      =   0.00100, vlimit  =  20.00000

Langevin dynamics temperature regulation:
     ig      =  667385
     temp0   = 310.00000, tempi   = 310.00000, gamma_ln=   5.00000

SHAKE:
     ntc     =       2, jfastw  =       0
     tol     =   0.00001

Extra-points options:
     frameon =       1, chngmask=       1

Ewald parameters:
     verbose =       0, ew_type =       0, nbflag  =       1, use_pme =       1
     vdwmeth =       1, eedmeth =       1, netfrc  =       1
     Box X =   73.274   Box Y =   73.274   Box Z =   73.274
     Alpha =  109.471   Beta  =  109.471   Gamma =  109.471
     NFFT1 =   80       NFFT2 =   75       NFFT3 =   75
     Cutoff=    8.000   Tol   =0.100E-04
     Ewald Coefficient =  0.34864
     Interpolation order =    4

    LOADING THE CONSTRAINED ATOMS AS GROUPS

   5.  REFERENCE ATOM COORDINATES

  defa
     Mask :DA,DC,DG,DT,D=3,D=5&!@H=; matches   486 atoms

--------------------------------------------------------------------------------
   3.  ATOMIC COORDINATES AND VELOCITIES
--------------------------------------------------------------------------------

default_name
 begin time read from input coords =     0.000 ps

 Number of triangulated 3-point waters found:     8718

     Sum of charges from parm topology file =   0.00004798
     Forcing neutrality...

--------------------------------------------------------------------------------
   4.  RESULTS
 NSTEP =        0   TIME(PS) =       0.000  TEMP(K) =   459.78  PRESS =     0.0
 Etot   =   -152438.2839  EKtot   =     24882.0499  EPtot      =   -177320.3338
 BOND   =        45.4767  ANGLE   =       139.5771  DIHED      =       536.3882
 1-4 NB =       180.7940  1-4 EEL =     -3196.1814  VDWAALS    =     28207.6375
 EELEC  =   -203234.0258  EHBOND  =         0.0000  RESTRAINT  =         0.0000
 Ewald error estimate:   0.6604E-03
 ------------------------------------------------------------------------------

      A V E R A G E S   O V E R   15000 S T E P S

 NSTEP =    15000   TIME(PS) =      15.000  TEMP(K) =   308.76  PRESS =     0.0
 Etot   =    -97057.6388  EKtot   =     16709.4783  EPtot      =   -113767.1171
 BOND   =       198.9771  ANGLE   =       395.7403  DIHED      =       601.3393
 1-4 NB =       202.1112  1-4 EEL =     -3203.5202  VDWAALS    =     14302.5393
 EELEC  =   -126339.5524  EHBOND  =         0.0000  RESTRAINT  =        75.2484
 EAMBER (non-restraint)  =   -113842.3655
 Ewald error estimate:   0.1118E-03
 ------------------------------------------------------------------------------

      R M S  F L U C T U A T I O N S

 NSTEP =    15000   TIME(PS) =      15.000  TEMP(K) =    12.48  PRESS =     0.0
 Etot   =       896.8320  EKtot   =       675.3690  EPtot      =       729.8498
 BOND   =        13.9050  ANGLE   =        18.6286  DIHED      =         8.2202
 1-4 NB =         5.1383  1-4 EEL =        15.1586  VDWAALS    =       872.8548
 EELEC  =      1415.4472  EHBOND  =         0.0000  RESTRAINT  =         6.6080
 EAMBER (non-restraint)  =       723.2419
 Ewald error estimate:   0.9725E-04
 ------------------------------------------------------------------------------
