-------------------------------------------------------
          Amber 22 SANDER                              2022
          -------------------------------------------------------

  [-O]verwriting output

File Assignments:

 Here is the input file:

Mdin read from input file: /home/gbayarri/projects/BioBB/biobb_workflows/biobb_wf_amber_abc_setup/python/sandbox_56eb36f9-c49b-45d7-9a60-cea11bf53cef/step7.in
and modified by the biobb_amber module from the BioBB library
MD: step7.in
 &cntrl
  imin = 0
  nstlim = 5000 ! BioBB property
  dt = 0.001
  ntx = 5
  irest = 1
  ig = -1
  ntwx = 500
  ntwv = -1
  ioutfm = 1
  ntxo = 2
  ntpr = 50
  ntwr = 500
  iwrap = 0
  nscm = 0
  ntc = 2
  ntf = 2
  ntb = 2
  cut = 8.0
  ntt = 3
  gamma_ln = 5
  temp0 = 310
  tempi = 310
  ntp = 1
  barostat = 2
  pres0 = 1.0
  ntr = 1
  restraintmask = ":DA,DC,DG,DT,D=3,D=5&!@H=" ! BioBB property
  restraint_wt = 0.5
 &end

--------------------------------------------------------------------------------
   1.  RESOURCE   USE:
--------------------------------------------------------------------------------

 getting box info from netcdf restart file
 NATOM  =   35682 NTYPES =      19 NBONH =   26426 MBONA  =    9262
 NTHETH =     640 MTHETA =     836 NPHIH =    1274 MPHIA  =    1606
 NHPARM =       0 NPARM  =       0 NNB   =   65288 NRES   =    8794
 NBONA  =    9262 NTHETA =     836 NPHIA =    1606 NUMBND =      53
 NUMANG =     103 NPTRA  =      66 NATYP =      34 NPHB   =       0
 IFBOX  =       2 NMXRS  =      34 IFCAP =       0 NEXTRA =    8718
 NCOPY  =       0

     BOX TYPE: TRUNCATED OCTAHEDRON
Note: ig = -1. Setting random seed to   455831 based on wallclock time in microseconds.

--------------------------------------------------------------------------------
   2.  CONTROL  DATA  FOR  THE  RUN
--------------------------------------------------------------------------------

default_name

General flags:
     imin    =       0, nmropt  =       0

Nature and format of input:
     ntx     =       5, irest   =       1, ntrx    =       1

Nature and format of output:
     ntxo    =       2, ntpr    =      50, ntrx    =       1, ntwr    =     500
     iwrap   =       0, ntwx    =     500, ntwv    =      -1, ntwe    =       0
     ioutfm  =       1, ntwprt  =       0, idecomp =       0, rbornstat=      0

Potential function:
     ntf     =       2, ntb     =       2, igb     =       0, nsnb    =      25
     ipol    =       0, gbsa    =       0, iesp    =       0
     dielc   =   1.00000, cut     =   8.00000, intdiel =   1.00000

Frozen or restrained atoms:
     ibelly  =       0, ntr     =       1
     restraint_wt =   0.50000

Molecular dynamics:
     nstlim  =      5000, nscm    =         0, nrespa  =         1
     t       =   0.00000, dt      =   0.00100, vlimit  =  20.00000

Langevin dynamics temperature regulation:
     ig      =  455831
     temp0   = 310.00000, tempi   = 310.00000, gamma_ln=   5.00000

Pressure regulation:
     ntp     =       1
     pres0   =   1.00000, comp    =  44.60000, taup    =   1.00000
     Monte-Carlo Barostat:
     mcbarint  =     100

SHAKE:
     ntc     =       2, jfastw  =       0
     tol     =   0.00001

Extra-points options:
     frameon =       1, chngmask=       1

Ewald parameters:
     verbose =       0, ew_type =       0, nbflag  =       1, use_pme =       1
     vdwmeth =       1, eedmeth =       1, netfrc  =       1
     Box X =   71.354   Box Y =   71.354   Box Z =   71.354
     Alpha =  109.471   Beta  =  109.471   Gamma =  109.471
     NFFT1 =   72       NFFT2 =   72       NFFT3 =   72
     Cutoff=    8.000   Tol   =0.100E-04
     Ewald Coefficient =  0.34864
     Interpolation order =    4

    LOADING THE CONSTRAINED ATOMS AS GROUPS

   5.  REFERENCE ATOM COORDINATES

  defa
     Mask :DA,DC,DG,DT,D=3,D=5&!@H=; matches   486 atoms

--------------------------------------------------------------------------------
   3.  ATOMIC COORDINATES AND VELOCITIES
--------------------------------------------------------------------------------

default_name
 begin time read from input coords =     5.000 ps

 Number of triangulated 3-point waters found:     8718

     Sum of charges from parm topology file =   0.00004798
     Forcing neutrality...

--------------------------------------------------------------------------------
   4.  RESULTS
 NSTEP =       50   TIME(PS) =       5.050  TEMP(K) =   311.66  PRESS =  -517.7
 Etot   =    -98866.8586  EKtot   =     16866.3626  EPtot      =   -115733.2212
 BOND   =       216.1174  ANGLE   =       423.4925  DIHED      =       604.6382
 1-4 NB =       204.8147  1-4 EEL =     -3198.3704  VDWAALS    =     15168.3933
 EELEC  =   -129160.2231  EHBOND  =         0.0000  RESTRAINT  =         7.9161
 EAMBER (non-restraint)  =   -115741.1373
 EKCMT  =      8076.0926  VIRIAL  =     11201.8415  VOLUME     =    279666.0652
                                                    Density    =         0.9875
 Ewald error estimate:   0.3250E-04
 ------------------------------------------------------------------------------

      A V E R A G E S   O V E R    5000 S T E P S

 NSTEP =     5000   TIME(PS) =      10.000  TEMP(K) =   309.97  PRESS =  -232.8
 Etot   =    -98867.8079  EKtot   =     16774.4975  EPtot      =   -115642.3054
 BOND   =       196.9179  ANGLE   =       399.7163  DIHED      =       604.1659
 1-4 NB =       201.0209  1-4 EEL =     -3187.4207  VDWAALS    =     14956.4733
 EELEC  =   -128844.0241  EHBOND  =         0.0000  RESTRAINT  =        30.8451
 EAMBER (non-restraint)  =   -115673.1505
 EKCMT  =      8100.7604  VIRIAL  =      9486.6567  VOLUME     =    274819.3409
                                                    Density    =         1.0050
 Ewald error estimate:   0.1299E-03
 ------------------------------------------------------------------------------

      R M S  F L U C T U A T I O N S

 NSTEP =     5000   TIME(PS) =      10.000  TEMP(K) =     1.78  PRESS =   203.5
 Etot   =       135.7099  EKtot   =        96.5951  EPtot      =       116.4107
 BOND   =        12.0250  ANGLE   =        15.8462  DIHED      =         9.1161
 1-4 NB =         5.1304  1-4 EEL =        15.8517  VDWAALS    =       250.5346
 EELEC  =       323.2824  EHBOND  =         0.0000  RESTRAINT  =         4.7549
 EAMBER (non-restraint)  =       111.6558
 EKCMT  =        63.0389  VIRIAL  =      1213.5791  VOLUME     =      2383.0229
                                                    Density    =         0.0087
 Ewald error estimate:   0.9823E-04
 ------------------------------------------------------------------------------
