-------------------------------------------------------
          Amber 22 SANDER                              2022
          -------------------------------------------------------

  [-O]verwriting output

File Assignments:

 Here is the input file:

This mdin file has been created by the biobb_amber module from the BioBB library
Type of mdin: free
&cntrl
  imin = 0 ! BioBB simulation_type nvt|npt|free|heat
  cut = 10.0 ! BioBB simulation_type nvt|npt|free|heat
  ntr = 0 ! BioBB simulation_type nvt|npt|free|heat
  ntc = 2 ! BioBB simulation_type nvt|npt|free|heat
  ntf = 2 ! BioBB simulation_type nvt|npt|free|heat
  ntt = 3 ! BioBB simulation_type nvt|npt|free|heat
  ig = -1 ! BioBB simulation_type nvt|npt|free|heat
  ioutfm = 1 ! BioBB simulation_type nvt|npt|free|heat
  iwrap = 1 ! BioBB simulation_type nvt|npt|free|heat
  nstlim = 250000 ! BioBB property
  dt = 0.002 ! BioBB simulation_type nvt|npt|free|heat
  ntwx = 500 ! BioBB property
&end

--------------------------------------------------------------------------------
   1.  RESOURCE   USE:
--------------------------------------------------------------------------------

 getting box info from netcdf restart file
 NATOM  =   18019 NTYPES =      17 NBONH =   16982 MBONA  =    1021
 NTHETH =    2158 MTHETA =    1381 NPHIH =    4520 MPHIA  =    4284
 NHPARM =       0 NPARM  =       0 NNB   =   32093 NRES   =    5506
 NBONA  =    1021 NTHETA =    1381 NPHIA =    4284 NUMBND =      65
 NUMANG =     150 NPTRA  =     186 NATYP =      35 NPHB   =       0
 IFBOX  =       2 NMXRS  =      24 IFCAP =       0 NEXTRA =       0
 NCOPY  =       0

     BOX TYPE: TRUNCATED OCTAHEDRON
Note: ig = -1. Setting random seed to   188227 based on wallclock time in microseconds.

--------------------------------------------------------------------------------
   2.  CONTROL  DATA  FOR  THE  RUN
--------------------------------------------------------------------------------

default_name

General flags:
     imin    =       0, nmropt  =       0

Nature and format of input:
     ntx     =       1, irest   =       0, ntrx    =       1

Nature and format of output:
     ntxo    =       2, ntpr    =      50, ntrx    =       1, ntwr    =  250000
     iwrap   =       1, ntwx    =     500, ntwv    =       0, ntwe    =       0
     ioutfm  =       1, ntwprt  =       0, idecomp =       0, rbornstat=      0

Potential function:
     ntf     =       2, ntb     =       1, igb     =       0, nsnb    =      25
     ipol    =       0, gbsa    =       0, iesp    =       0
     dielc   =   1.00000, cut     =  10.00000, intdiel =   1.00000

Frozen or restrained atoms:
     ibelly  =       0, ntr     =       0

Molecular dynamics:
     nstlim  =    250000, nscm    =      1000, nrespa  =         1
     t       =   0.00000, dt      =   0.00200, vlimit  =  20.00000

Langevin dynamics temperature regulation:
     ig      =  188227
     temp0   = 300.00000, tempi   =   0.00000, gamma_ln=   0.00000

SHAKE:
     ntc     =       2, jfastw  =       0
     tol     =   0.00001

Ewald parameters:
     verbose =       0, ew_type =       0, nbflag  =       1, use_pme =       1
     vdwmeth =       1, eedmeth =       1, netfrc  =       1
     Box X =   61.566   Box Y =   61.566   Box Z =   61.566
     Alpha =  109.471   Beta  =  109.471   Gamma =  109.471
     NFFT1 =   64       NFFT2 =   64       NFFT3 =   64
     Cutoff=   10.000   Tol   =0.100E-04
     Ewald Coefficient =  0.27511
     Interpolation order =    4

--------------------------------------------------------------------------------
   3.  ATOMIC COORDINATES AND VELOCITIES
--------------------------------------------------------------------------------

default_name
 begin time read from input coords =   110.000 ps

 Number of triangulated 3-point waters found:     5341

     Sum of charges from parm topology file =  -0.00000006
     Forcing neutrality...

--------------------------------------------------------------------------------
   4.  RESULTS
 NSTEP =        0   TIME(PS) =       0.000  TEMP(K) =     0.00  PRESS =     0.0
 Etot   =    -58700.4706  EKtot   =         0.0000  EPtot      =    -58700.4706
 BOND   =       374.6465  ANGLE   =       953.2475  DIHED      =      1645.2906
 1-4 NB =       462.8523  1-4 EEL =      3891.2049  VDWAALS    =      6541.2998
 EELEC  =    -72569.0122  EHBOND  =         0.0000  RESTRAINT  =         0.0000
 Ewald error estimate:   0.3137E-04
 ------------------------------------------------------------------------------

      A V E R A G E S   O V E R  250000 S T E P S

 NSTEP =   250000   TIME(PS) =     500.000  TEMP(K) =   204.65  PRESS =     0.0
 Etot   =    -58762.7958  EKtot   =      7538.1307  EPtot      =    -66300.9265
 BOND   =       284.6909  ANGLE   =       710.1300  DIHED      =      1531.8376
 1-4 NB =       429.9512  1-4 EEL =      3874.3385  VDWAALS    =      8940.1592
 EELEC  =    -82072.0338  EHBOND  =         0.0000  RESTRAINT  =         0.0000
 Ewald error estimate:   0.7352E-04
 ------------------------------------------------------------------------------

      R M S  F L U C T U A T I O N S

 NSTEP =   250000   TIME(PS) =     500.000  TEMP(K) =     2.25  PRESS =     0.0
 Etot   =         2.5542  EKtot   =        82.8494  EPtot      =        82.9031
 BOND   =        13.1544  ANGLE   =        21.2129  DIHED      =        10.3613
 1-4 NB =         7.0661  1-4 EEL =        21.3224  VDWAALS    =       124.2579
 EELEC  =       196.0062  EHBOND  =         0.0000  RESTRAINT  =         0.0000
 Ewald error estimate:   0.5474E-04
 ------------------------------------------------------------------------------
