-------------------------------------------------------
          Amber 22 SANDER                              2022
          -------------------------------------------------------

  [-O]verwriting output

File Assignments:

 Here is the input file:

Mdin read from input file: /home/gbayarri/projects/BioBB/biobb_workflows/biobb_wf_amber_abc_setup/python/sandbox_1498a356-4857-4615-923f-041148a9984e/step8.in
and modified by the biobb_amber module from the BioBB library
MD: step8.in
 &cntrl
  imin = 0
  nstlim = 10000 ! BioBB property
  dt = 0.001
  ntx = 5
  irest = 1
  ig = -1
  ntwx = 500
  ntwv = -1
  ioutfm = 1
  ntxo = 2
  ntpr = 50
  ntwr = 500
  iwrap = 0
  nscm = 0
  ntc = 2
  ntf = 2
  ntb = 2
  cut = 8.0
  ntt = 3
  gamma_ln = 5
  temp0 = 310
  tempi = 310
  ntp = 1
  barostat = 2
  pres0 = 1.0
  ntr = 1
  restraintmask = ":DA,DC,DG,DT,D=3,D=5&@P,O5=,C5=,C4=,C3=,O3=" ! BioBB property
  restraint_wt = 0.5
 &end

--------------------------------------------------------------------------------
   1.  RESOURCE   USE:
--------------------------------------------------------------------------------

 getting box info from netcdf restart file
 NATOM  =   35682 NTYPES =      19 NBONH =   26426 MBONA  =    9262
 NTHETH =     640 MTHETA =     836 NPHIH =    1274 MPHIA  =    1606
 NHPARM =       0 NPARM  =       0 NNB   =   65288 NRES   =    8794
 NBONA  =    9262 NTHETA =     836 NPHIA =    1606 NUMBND =      53
 NUMANG =     103 NPTRA  =      66 NATYP =      34 NPHB   =       0
 IFBOX  =       2 NMXRS  =      34 IFCAP =       0 NEXTRA =    8718
 NCOPY  =       0

     BOX TYPE: TRUNCATED OCTAHEDRON
Note: ig = -1. Setting random seed to   772923 based on wallclock time in microseconds.

--------------------------------------------------------------------------------
   2.  CONTROL  DATA  FOR  THE  RUN
--------------------------------------------------------------------------------

default_name

General flags:
     imin    =       0, nmropt  =       0

Nature and format of input:
     ntx     =       5, irest   =       1, ntrx    =       1

Nature and format of output:
     ntxo    =       2, ntpr    =      50, ntrx    =       1, ntwr    =     500
     iwrap   =       0, ntwx    =     500, ntwv    =      -1, ntwe    =       0
     ioutfm  =       1, ntwprt  =       0, idecomp =       0, rbornstat=      0

Potential function:
     ntf     =       2, ntb     =       2, igb     =       0, nsnb    =      25
     ipol    =       0, gbsa    =       0, iesp    =       0
     dielc   =   1.00000, cut     =   8.00000, intdiel =   1.00000

Frozen or restrained atoms:
     ibelly  =       0, ntr     =       1
     restraint_wt =   0.50000

Molecular dynamics:
     nstlim  =     10000, nscm    =         0, nrespa  =         1
     t       =   0.00000, dt      =   0.00100, vlimit  =  20.00000

Langevin dynamics temperature regulation:
     ig      =  772923
     temp0   = 310.00000, tempi   = 310.00000, gamma_ln=   5.00000

Pressure regulation:
     ntp     =       1
     pres0   =   1.00000, comp    =  44.60000, taup    =   1.00000
     Monte-Carlo Barostat:
     mcbarint  =     100

SHAKE:
     ntc     =       2, jfastw  =       0
     tol     =   0.00001

Extra-points options:
     frameon =       1, chngmask=       1

Ewald parameters:
     verbose =       0, ew_type =       0, nbflag  =       1, use_pme =       1
     vdwmeth =       1, eedmeth =       1, netfrc  =       1
     Box X =   70.697   Box Y =   70.697   Box Z =   70.697
     Alpha =  109.471   Beta  =  109.471   Gamma =  109.471
     NFFT1 =   72       NFFT2 =   72       NFFT3 =   72
     Cutoff=    8.000   Tol   =0.100E-04
     Ewald Coefficient =  0.34864
     Interpolation order =    4

    LOADING THE CONSTRAINED ATOMS AS GROUPS

   5.  REFERENCE ATOM COORDINATES

  defa
     Mask :DA,DC,DG,DT,D=3,D=5&@P,O5=,C5=,C4=,C3=,O3=; matches   190 atoms

--------------------------------------------------------------------------------
   3.  ATOMIC COORDINATES AND VELOCITIES
--------------------------------------------------------------------------------

default_name
 begin time read from input coords =    10.000 ps

 Number of triangulated 3-point waters found:     8718

     Sum of charges from parm topology file =   0.00004798
     Forcing neutrality...

--------------------------------------------------------------------------------
   4.  RESULTS
 NSTEP =       50   TIME(PS) =      10.050  TEMP(K) =   311.46  PRESS =  -228.3
 Etot   =    -98665.0016  EKtot   =     16855.3345  EPtot      =   -115520.3361
 BOND   =       200.2022  ANGLE   =       421.6750  DIHED      =       607.1982
 1-4 NB =       187.6707  1-4 EEL =     -3204.2555  VDWAALS    =     14698.3325
 EELEC  =   -128433.7576  EHBOND  =         0.0000  RESTRAINT  =         2.5985
 EAMBER (non-restraint)  =   -115522.9346
 EKCMT  =      8115.2869  VIRIAL  =      9456.3356  VOLUME     =    272008.5541
                                                    Density    =         1.0153
 Ewald error estimate:   0.3924E-04
 ------------------------------------------------------------------------------

      A V E R A G E S   O V E R   10000 S T E P S

 NSTEP =    10000   TIME(PS) =      20.000  TEMP(K) =   309.94  PRESS =  -134.9
 Etot   =    -98862.0813  EKtot   =     16773.2575  EPtot      =   -115635.3388
 BOND   =       199.1237  ANGLE   =       404.2057  DIHED      =       601.3787
 1-4 NB =       200.3527  1-4 EEL =     -3179.6862  VDWAALS    =     14726.8445
 EELEC  =   -128609.2739  EHBOND  =         0.0000  RESTRAINT  =        21.7161
 EAMBER (non-restraint)  =   -115657.0549
 EKCMT  =      8116.3338  VIRIAL  =      8908.0217  VOLUME     =    271052.0839
                                                    Density    =         1.0189
 Ewald error estimate:   0.1106E-03
 ------------------------------------------------------------------------------

      R M S  F L U C T U A T I O N S

 NSTEP =    10000   TIME(PS) =      20.000  TEMP(K) =     1.95  PRESS =   197.0
 Etot   =       206.4349  EKtot   =       105.4350  EPtot      =       175.1941
 BOND   =        11.8825  ANGLE   =        15.4511  DIHED      =        10.2076
 1-4 NB =         5.2967  1-4 EEL =        14.7821  VDWAALS    =       189.4765
 EELEC  =       303.5211  EHBOND  =         0.0000  RESTRAINT  =         5.1782
 EAMBER (non-restraint)  =       170.0160
 EKCMT  =        71.0394  VIRIAL  =      1148.5556  VOLUME     =       945.7501
                                                    Density    =         0.0036
 Ewald error estimate:   0.8545E-04
 ------------------------------------------------------------------------------
