-------------------------------------------------------
          Amber 22 SANDER                              2022
          -------------------------------------------------------

  [-O]verwriting output

File Assignments:

 Here is the input file:

Mdin read from input file: /home/gbayarri/projects/BioBB/biobb_workflows/biobb_wf_amber_abc_setup/python/sandbox_873ad69c-52c1-4380-b75d-638c6f1e225f/step9.in
and modified by the biobb_amber module from the BioBB library
MD: step9.in
 &cntrl
  imin = 0
  nstlim = 10000 ! BioBB property
  dt = 0.002
  ntx = 5
  irest = 1
  ig = -1
  ntwx = 500
  ntwv = -1
  ioutfm = 1
  ntxo = 2
  ntpr = 50
  ntwr = 500
  iwrap = 0
  nscm = 1000
  ntc = 2
  ntf = 2
  ntb = 2
  cut = 8.0
  ntt = 3
  gamma_ln = 5
  temp0 = 310
  tempi = 310
  ntp = 1
  barostat = 2
  pres0 = 1.0
  ntr = 0
 &end

--------------------------------------------------------------------------------
   1.  RESOURCE   USE:
--------------------------------------------------------------------------------

 getting box info from netcdf restart file
 NATOM  =   35682 NTYPES =      19 NBONH =   26426 MBONA  =    9262
 NTHETH =     640 MTHETA =     836 NPHIH =    1274 MPHIA  =    1606
 NHPARM =       0 NPARM  =       0 NNB   =   65288 NRES   =    8794
 NBONA  =    9262 NTHETA =     836 NPHIA =    1606 NUMBND =      53
 NUMANG =     103 NPTRA  =      66 NATYP =      34 NPHB   =       0
 IFBOX  =       2 NMXRS  =      34 IFCAP =       0 NEXTRA =    8718
 NCOPY  =       0

     BOX TYPE: TRUNCATED OCTAHEDRON
Note: ig = -1. Setting random seed to   503683 based on wallclock time in microseconds.

--------------------------------------------------------------------------------
   2.  CONTROL  DATA  FOR  THE  RUN
--------------------------------------------------------------------------------

default_name

General flags:
     imin    =       0, nmropt  =       0

Nature and format of input:
     ntx     =       5, irest   =       1, ntrx    =       1

Nature and format of output:
     ntxo    =       2, ntpr    =      50, ntrx    =       1, ntwr    =     500
     iwrap   =       0, ntwx    =     500, ntwv    =      -1, ntwe    =       0
     ioutfm  =       1, ntwprt  =       0, idecomp =       0, rbornstat=      0

Potential function:
     ntf     =       2, ntb     =       2, igb     =       0, nsnb    =      25
     ipol    =       0, gbsa    =       0, iesp    =       0
     dielc   =   1.00000, cut     =   8.00000, intdiel =   1.00000

Frozen or restrained atoms:
     ibelly  =       0, ntr     =       0

Molecular dynamics:
     nstlim  =     10000, nscm    =      1000, nrespa  =         1
     t       =   0.00000, dt      =   0.00200, vlimit  =  20.00000

Langevin dynamics temperature regulation:
     ig      =  503683
     temp0   = 310.00000, tempi   = 310.00000, gamma_ln=   5.00000

Pressure regulation:
     ntp     =       1
     pres0   =   1.00000, comp    =  44.60000, taup    =   1.00000
     Monte-Carlo Barostat:
     mcbarint  =     100

SHAKE:
     ntc     =       2, jfastw  =       0
     tol     =   0.00001

Extra-points options:
     frameon =       1, chngmask=       1

Ewald parameters:
     verbose =       0, ew_type =       0, nbflag  =       1, use_pme =       1
     vdwmeth =       1, eedmeth =       1, netfrc  =       1
     Box X =   70.455   Box Y =   70.455   Box Z =   70.455
     Alpha =  109.471   Beta  =  109.471   Gamma =  109.471
     NFFT1 =   72       NFFT2 =   72       NFFT3 =   72
     Cutoff=    8.000   Tol   =0.100E-04
     Ewald Coefficient =  0.34864
     Interpolation order =    4

--------------------------------------------------------------------------------
   3.  ATOMIC COORDINATES AND VELOCITIES
--------------------------------------------------------------------------------

default_name
 begin time read from input coords =    20.000 ps

 Number of triangulated 3-point waters found:     8718

     Sum of charges from parm topology file =   0.00004798
     Forcing neutrality...

--------------------------------------------------------------------------------
   4.  RESULTS
 NSTEP =       50   TIME(PS) =      20.100  TEMP(K) =   309.20  PRESS =   -27.5
 Etot   =    -99018.1793  EKtot   =     16733.1632  EPtot      =   -115751.3424
 BOND   =       200.9994  ANGLE   =       388.7244  DIHED      =       597.1660
 1-4 NB =       203.8623  1-4 EEL =     -3176.9116  VDWAALS    =     14646.3985
 EELEC  =   -128611.5815  EHBOND  =         0.0000  RESTRAINT  =         0.0000
 EKCMT  =      8124.9848  VIRIAL  =      8285.0905  VOLUME     =    269218.9178
                                                    Density    =         1.0258
 Ewald error estimate:   0.9746E-04
 ------------------------------------------------------------------------------

      A V E R A G E S   O V E R   10000 S T E P S

 NSTEP =    10000   TIME(PS) =      40.000  TEMP(K) =   310.19  PRESS =    41.2
 Etot   =    -98766.0115  EKtot   =     16786.7260  EPtot      =   -115552.7374
 BOND   =       209.1008  ANGLE   =       416.8335  DIHED      =       591.5904
 1-4 NB =       201.3528  1-4 EEL =     -3169.1937  VDWAALS    =     14697.9353
 EELEC  =   -128500.3565  EHBOND  =         0.0000  RESTRAINT  =         0.0000
 EKCMT  =      8138.8107  VIRIAL  =      7899.6927  VOLUME     =    269419.2454
                                                    Density    =         1.0251
 Ewald error estimate:   0.1099E-03
 ------------------------------------------------------------------------------

      R M S  F L U C T U A T I O N S

 NSTEP =    10000   TIME(PS) =      40.000  TEMP(K) =     2.00  PRESS =   170.0
 Etot   =       208.3375  EKtot   =       108.0772  EPtot      =       165.0073
 BOND   =        12.3371  ANGLE   =        15.7372  DIHED      =         9.3079
 1-4 NB =         5.5169  1-4 EEL =        15.6068  VDWAALS    =       173.7281
 EELEC  =       270.8086  EHBOND  =         0.0000  RESTRAINT  =         0.0000
 EKCMT  =        76.2350  VIRIAL  =       985.5332  VOLUME     =       492.3714
                                                    Density    =         0.0019
 Ewald error estimate:   0.8437E-04
 ------------------------------------------------------------------------------
