-------------------------------------------------------
          Amber 22 SANDER                              2022
          -------------------------------------------------------

  [-O]verwriting output

File Assignments:

 Here is the input file:

Mdin read from input file: /home/gbayarri/projects/BioBB/biobb_workflows/biobb_wf_amber_abc_setup/python/sandbox_304c044b-0b39-4a29-8b00-d43d7fe6b960/step6.in
and modified by the biobb_amber module from the BioBB library
MD: step6.in
 &cntrl
  imin = 0
  nstlim = 5000 ! BioBB property
  dt = 0.001
  ntx = 1
  irest = 0
  ig = -1
  ntwx = 500
  ntwv = -1
  ioutfm = 1
  ntxo = 2
  ntpr = 50
  ntwr = 500
  iwrap = 0
  nscm = 0
  ntc = 2
  ntf = 2
  ntb = 2
  cut = 8.0
  ntt = 3
  gamma_ln = 5
  temp0 = 310
  tempi = 310
  ntp = 1
  barostat = 2
  pres0 = 1.0
  ntr = 1
  restraintmask = ":DA,DC,DG,DT,D=3,D=5&!@H=" ! BioBB property
  restraint_wt = 1.0
 &end

--------------------------------------------------------------------------------
   1.  RESOURCE   USE:
--------------------------------------------------------------------------------

 getting box info from netcdf restart file
 NATOM  =   35682 NTYPES =      19 NBONH =   26426 MBONA  =    9262
 NTHETH =     640 MTHETA =     836 NPHIH =    1274 MPHIA  =    1606
 NHPARM =       0 NPARM  =       0 NNB   =   65288 NRES   =    8794
 NBONA  =    9262 NTHETA =     836 NPHIA =    1606 NUMBND =      53
 NUMANG =     103 NPTRA  =      66 NATYP =      34 NPHB   =       0
 IFBOX  =       2 NMXRS  =      34 IFCAP =       0 NEXTRA =    8718
 NCOPY  =       0

     BOX TYPE: TRUNCATED OCTAHEDRON
Note: ig = -1. Setting random seed to   680142 based on wallclock time in microseconds.

--------------------------------------------------------------------------------
   2.  CONTROL  DATA  FOR  THE  RUN
--------------------------------------------------------------------------------

default_name

General flags:
     imin    =       0, nmropt  =       0

Nature and format of input:
     ntx     =       1, irest   =       0, ntrx    =       1

Nature and format of output:
     ntxo    =       2, ntpr    =      50, ntrx    =       1, ntwr    =     500
     iwrap   =       0, ntwx    =     500, ntwv    =      -1, ntwe    =       0
     ioutfm  =       1, ntwprt  =       0, idecomp =       0, rbornstat=      0

Potential function:
     ntf     =       2, ntb     =       2, igb     =       0, nsnb    =      25
     ipol    =       0, gbsa    =       0, iesp    =       0
     dielc   =   1.00000, cut     =   8.00000, intdiel =   1.00000

Frozen or restrained atoms:
     ibelly  =       0, ntr     =       1
     restraint_wt =   1.00000

Molecular dynamics:
     nstlim  =      5000, nscm    =         0, nrespa  =         1
     t       =   0.00000, dt      =   0.00100, vlimit  =  20.00000

Langevin dynamics temperature regulation:
     ig      =  680142
     temp0   = 310.00000, tempi   = 310.00000, gamma_ln=   5.00000

Pressure regulation:
     ntp     =       1
     pres0   =   1.00000, comp    =  44.60000, taup    =   1.00000
     Monte-Carlo Barostat:
     mcbarint  =     100

SHAKE:
     ntc     =       2, jfastw  =       0
     tol     =   0.00001

Extra-points options:
     frameon =       1, chngmask=       1

Ewald parameters:
     verbose =       0, ew_type =       0, nbflag  =       1, use_pme =       1
     vdwmeth =       1, eedmeth =       1, netfrc  =       1
     Box X =   73.274   Box Y =   73.274   Box Z =   73.274
     Alpha =  109.471   Beta  =  109.471   Gamma =  109.471
     NFFT1 =   80       NFFT2 =   75       NFFT3 =   75
     Cutoff=    8.000   Tol   =0.100E-04
     Ewald Coefficient =  0.34864
     Interpolation order =    4

    LOADING THE CONSTRAINED ATOMS AS GROUPS

   5.  REFERENCE ATOM COORDINATES

  defa
     Mask :DA,DC,DG,DT,D=3,D=5&!@H=; matches   486 atoms

--------------------------------------------------------------------------------
   3.  ATOMIC COORDINATES AND VELOCITIES
--------------------------------------------------------------------------------

default_name
 begin time read from input coords =     0.000 ps

 Number of triangulated 3-point waters found:     8718

     Sum of charges from parm topology file =   0.00004798
     Forcing neutrality...

--------------------------------------------------------------------------------
   4.  RESULTS
 NSTEP =        0   TIME(PS) =       0.000  TEMP(K) =   459.26  PRESS =-10607.2
 Etot   =   -159932.9709  EKtot   =     24853.8849  EPtot      =   -184786.8558
 BOND   =        41.2309  ANGLE   =       125.1179  DIHED      =       526.5687
 1-4 NB =       176.7046  1-4 EEL =     -3176.2714  VDWAALS    =     28350.6788
 EELEC  =   -210830.8852  EHBOND  =         0.0000  RESTRAINT  =         0.0000
 EKCMT  =      8138.1416  VIRIAL  =     77497.7787  VOLUME     =    302849.8253
                                                    Density    =         0.9119
 Ewald error estimate:   0.4925E-03
 ------------------------------------------------------------------------------

      A V E R A G E S   O V E R    5000 S T E P S

 NSTEP =     5000   TIME(PS) =       5.000  TEMP(K) =   304.50  PRESS =  -862.1
 Etot   =    -99381.0960  EKtot   =     16478.4582  EPtot      =   -115859.5542
 BOND   =       195.3457  ANGLE   =       392.1473  DIHED      =       604.2033
 1-4 NB =       200.4990  1-4 EEL =     -3189.1190  VDWAALS    =     15634.9208
 EELEC  =   -129733.8474  EHBOND  =         0.0000  RESTRAINT  =        36.2962
 EAMBER (non-restraint)  =   -115895.8503
 EKCMT  =      7987.8071  VIRIAL  =     13406.4459  VOLUME     =    290566.1004
                                                    Density    =         0.9509
 Ewald error estimate:   0.1425E-03
 ------------------------------------------------------------------------------

      R M S  F L U C T U A T I O N S

 NSTEP =     5000   TIME(PS) =       5.000  TEMP(K) =    23.38  PRESS =   761.2
 Etot   =      2441.9061  EKtot   =      1265.0441  EPtot      =      1805.0621
 BOND   =        15.2026  ANGLE   =        25.0289  DIHED      =        10.0664
 1-4 NB =         5.4720  1-4 EEL =        15.0148  VDWAALS    =      1578.1610
 EELEC  =      3164.0050  EHBOND  =         0.0000  RESTRAINT  =         6.4968
 EAMBER (non-restraint)  =      1798.5653
 EKCMT  =       369.0835  VIRIAL  =      5054.4781  VOLUME     =      6133.3672
                                                    Density    =         0.0199
 Ewald error estimate:   0.1095E-03
 ------------------------------------------------------------------------------
