-------------------------------------------------------
          Amber 22 SANDER                              2022
          -------------------------------------------------------

  [-O]verwriting output

File Assignments:

 Here is the input file:

This mdin file has been created by the biobb_amber module from the BioBB library
Type of mdin: nvt
&cntrl
  imin = 0 ! BioBB simulation_type nvt|npt|free|heat
  cut = 10.0 ! BioBB simulation_type nvt|npt|free|heat
  ntr = 1 ! BioBB property
  ntc = 2 ! BioBB simulation_type nvt|npt|free|heat
  ntf = 2 ! BioBB simulation_type nvt|npt|free|heat
  ntt = 3 ! BioBB simulation_type nvt|npt|free|heat
  ig = -1 ! BioBB simulation_type nvt|npt|free|heat
  ioutfm = 1 ! BioBB simulation_type nvt|npt|free|heat
  iwrap = 1 ! BioBB simulation_type nvt|npt|free|heat
  nstlim = 25000 ! BioBB property
  dt = 0.002 ! BioBB simulation_type nvt|npt|free|heat
  irest = 1 ! BioBB simulation_type nvt
  gamma_ln = 5.0 ! BioBB simulation_type nvt
  ntb = 1 ! BioBB simulation_type nvt
  ntx = 5 ! BioBB simulation_type nvt
  ntwx = 100 ! BioBB property
  restraintmask = "!:WAT,Cl-,Na+ & !@H=" ! BioBB property
  restraint_wt = 5.0 ! BioBB property
&end

--------------------------------------------------------------------------------
   1.  RESOURCE   USE:
--------------------------------------------------------------------------------

 getting box info from netcdf restart file
 NATOM  =   25456 NTYPES =      17 NBONH =   24095 MBONA  =    1334
 NTHETH =    3008 MTHETA =    1794 NPHIH =    6105 MPHIA  =    5593
 NHPARM =       0 NPARM  =       0 NNB   =   44912 NRES   =    7799
 NBONA  =    1334 NTHETA =    1794 NPHIA =    5593 NUMBND =      78
 NUMANG =     170 NPTRA  =     193 NATYP =      46 NPHB   =       0
 IFBOX  =       2 NMXRS  =      24 IFCAP =       0 NEXTRA =       0
 NCOPY  =       0

     BOX TYPE: TRUNCATED OCTAHEDRON
Note: ig = -1. Setting random seed to   201532 based on wallclock time in microseconds.

--------------------------------------------------------------------------------
   2.  CONTROL  DATA  FOR  THE  RUN
--------------------------------------------------------------------------------

default_name

General flags:
     imin    =       0, nmropt  =       0

Nature and format of input:
     ntx     =       5, irest   =       1, ntrx    =       1

Nature and format of output:
     ntxo    =       2, ntpr    =      50, ntrx    =       1, ntwr    =   25000
     iwrap   =       1, ntwx    =     100, ntwv    =       0, ntwe    =       0
     ioutfm  =       1, ntwprt  =       0, idecomp =       0, rbornstat=      0

Potential function:
     ntf     =       2, ntb     =       1, igb     =       0, nsnb    =      25
     ipol    =       0, gbsa    =       0, iesp    =       0
     dielc   =   1.00000, cut     =  10.00000, intdiel =   1.00000

Frozen or restrained atoms:
     ibelly  =       0, ntr     =       1
     restraint_wt =   5.00000

Molecular dynamics:
     nstlim  =     25000, nscm    =         0, nrespa  =         1
     t       =   0.00000, dt      =   0.00200, vlimit  =  20.00000

Langevin dynamics temperature regulation:
     ig      =  201532
     temp0   = 300.00000, tempi   =   0.00000, gamma_ln=   5.00000

SHAKE:
     ntc     =       2, jfastw  =       0
     tol     =   0.00001

Ewald parameters:
     verbose =       0, ew_type =       0, nbflag  =       1, use_pme =       1
     vdwmeth =       1, eedmeth =       1, netfrc  =       1
     Box X =   72.313   Box Y =   72.313   Box Z =   72.313
     Alpha =  109.471   Beta  =  109.471   Gamma =  109.471
     NFFT1 =   72       NFFT2 =   72       NFFT3 =   72
     Cutoff=   10.000   Tol   =0.100E-04
     Ewald Coefficient =  0.27511
     Interpolation order =    4

    LOADING THE CONSTRAINED ATOMS AS GROUPS

   5.  REFERENCE ATOM COORDINATES

  defa
     Mask !:WAT,Cl-,Na+ & !@H=; matches  1315 atoms

--------------------------------------------------------------------------------
   3.  ATOMIC COORDINATES AND VELOCITIES
--------------------------------------------------------------------------------

default_name
 begin time read from input coords =    10.000 ps

 Number of triangulated 3-point waters found:     7588

     Sum of charges from parm topology file =  -0.00100006
     Forcing neutrality...

--------------------------------------------------------------------------------
   4.  RESULTS
 NSTEP =       50   TIME(PS) =      10.100  TEMP(K) =   292.61  PRESS =     0.0
 Etot   =    -64453.0923  EKtot   =     15197.5628  EPtot      =    -79650.6551
 BOND   =       481.6012  ANGLE   =      1223.2753  DIHED      =      2059.8800
 1-4 NB =       606.7330  1-4 EEL =      5360.1333  VDWAALS    =      8553.6142
 EELEC  =    -98172.6644  EHBOND  =         0.0000  RESTRAINT  =       236.7722
 EAMBER (non-restraint)  =    -79887.4273
 Ewald error estimate:   0.1346E-03
 ------------------------------------------------------------------------------

      A V E R A G E S   O V E R   25000 S T E P S

 NSTEP =    25000   TIME(PS) =      60.000  TEMP(K) =   300.13  PRESS =     0.0
 Etot   =    -64278.4845  EKtot   =     15588.0523  EPtot      =    -79866.5368
 BOND   =       489.8410  ANGLE   =      1241.9714  DIHED      =      2075.4700
 1-4 NB =       628.1768  1-4 EEL =      5393.0691  VDWAALS    =      8649.0728
 EELEC  =    -98593.0895  EHBOND  =         0.0000  RESTRAINT  =       248.9514
 EAMBER (non-restraint)  =    -80115.4882
 Ewald error estimate:   0.6358E-04
 ------------------------------------------------------------------------------

      R M S  F L U C T U A T I O N S

 NSTEP =    25000   TIME(PS) =      60.000  TEMP(K) =     1.89  PRESS =     0.0
 Etot   =       204.6971  EKtot   =        98.2274  EPtot      =       171.0624
 BOND   =        18.5373  ANGLE   =        26.7382  DIHED      =        13.0958
 1-4 NB =         9.6257  1-4 EEL =        25.4568  VDWAALS    =       128.9522
 EELEC  =       244.2482  EHBOND  =         0.0000  RESTRAINT  =        11.4026
 EAMBER (non-restraint)  =       159.6599
 Ewald error estimate:   0.4872E-04
 ------------------------------------------------------------------------------
